 ****** HSPICE -- R-2020.12 win64 (Nov 23 2020 6727817) ******                  
  Copyright (c) 1986 - 2021 by Synopsys, Inc. All Rights Reserved.              
  This software and the associated documentation are proprietary
  to Synopsys, Inc. This software may only be used in accordance
  with the terms and conditions of a written license agreement with
  Synopsys, Inc. All other use, reproduction, or distribution of
  this software is strictly prohibited.
  Input File: main.sp                                                           
  Command line options: C:\synopsys\Hspice_R-2020.12\WIN64\hspice.com -i main.sp -o C:\Users\maxde\AppData\LocalLow\USN Kongsberg\MRCS\User\Generated\4B4TwoBody\output\main.lis -hpp -mt 2
  Start time: Sun Dec 19 12:48:23 2021
  lic:  
  lic: FLEXlm: SDK_12.9 
  lic: USER:   maxde                HOSTNAME: Alien-One 
  lic: HOSTID: "802bf9e1da16"       PID:      24760 
  lic: Using FLEXlm license file: 
  lic: 27020@lic011.usn.no 
  lic: Checkout 1 hspice 
  lic: License/Maintenance for hspice will expire on 31-dec-2021/2020.12 
  lic: 1(in_use)/1(total) FLOATING license(s) on SERVER 27020@lic011.usn.no 
  lic:   
   **info**  "-hpp" is not applicable for the usage of "equation that contain probe current of elements other than V,L,E,H,R,I"

 **warning** RUNLVL=0 option detected. RUNLVL=0 is automatically switched to RUNLVL=5 from Release H-2013.03-SP1. RUNLVL=0 is a legacy setting with poor runtime performance.


1****** HSPICE -- R-2020.12 win64 (Nov 23 2020 6727817) ******                  
 ******  
 ternary circuits

 ****** circuit name directory
 circuit number to circuit name directory
   number circuitname                     definition         multiplier
        0 main circuit
        1 xtfa.                           c_4b4twobody       1.00 
        2 xtfa.xpti0.                     pti                1.00 
        3 xtfa.xnti1.                     nti                1.00 
        4 xtfa.xckt0.                     f_he4              1.00 
        5 xtfa.xnti2.                     nti                1.00 
        6 xtfa.xpti3.                     pti                1.00 
        7 xtfa.xnti4.                     nti                1.00 
        8 xtfa.xckt1.                     f_5xc              1.00 
        9 xtfa.xnti5.                     nti                1.00 
       10 xtfa.xpti6.                     pti                1.00 
       11 xtfa.xckt2.                     f_hhddxxddd        1.00 
       12 xtfa.xpti7.                     pti                1.00 
       13 xtfa.xckt3.                     f_zzr              1.00 
       14 xtfa.xpti8.                     pti                1.00 
       15 xtfa.xckt4.                     f_5xx              1.00 
       16 xtfa.xnti9.                     nti                1.00 
       17 xtfa.xpti10.                    pti                1.00 
       18 xtfa.xnti11.                    nti                1.00 
       19 xtfa.xckt5.                     f_xe2              1.00 
       20 xtfa.xnti12.                    nti                1.00 
       21 xtfa.xpti13.                    pti                1.00 
       22 xtfa.xckt6.                     f_rrdrddddd        1.00 
       23 xtfa.xpti14.                    pti                1.00 
       24 xtfa.xpti15.                    pti                1.00 
       25 xtfa.xnti16.                    nti                1.00 
       26 xtfa.xckt7.                     f_h4k              1.00 
       27 xtfa.xckt8.                     f_dd4              1.00 
       28 xtfa.xpti17.                    pti                1.00 
       29 xtfa.xnti18.                    nti                1.00 
       30 xtfa.xckt9.                     f_88r              1.00 
       31 xtfa.xckt10.                    f_rrd              1.00 
  **info** (main.sp:31) DC voltage reset to initial transient source value in source 0:vin0. new dc=0.0000D+00

 **warning**  associated with encrypted block(s) were suppressed due to encrypted content

             
 Summary of Linear Res Distribution Info
 -----------------------------------------------------
 |Range                        |Total     |Percent(%)|
 |-----------------------------+----------+----------|
 |1.000000e-01  ~  1.000000e+00|428       |50.0000   |
 |> 1.000000e+12               |428       |50.0000   |
 -----------------------------------------------------
              
             
 Summary of Linear Cap Distribution Info
 -----------------------------------------------------
 |Range                        |Total     |Percent(%)|
 |-----------------------------+----------+----------|
 |= 0.0                        |856       |30.7692   |
 |1.000000e-19  ~  1.000000e-18|856       |30.7692   |
 |1.000000e-18  ~  1.000000e-17|1070      |38.4615   |
 -----------------------------------------------------
              
             
 Summary of Detailed RC Type Statistics
 --------------------------------------
 |Element Type             |Number    |
 |-------------------------+----------|
 |Constant Res             |856       |
 |Non-Linear Behavioral Res|1712      |
 |                         |          |
 |Constant Cap             |2782      |
 |Non-Linear Behavioral Cap|3424      |
 --------------------------------------
              
  
      
  **warning** PIVOT option setting is simplified, pivot = 13 is obsolete, automatically switch to pivot = 1.
 *****************************************************************
 ******  option summary
 ******
 runlvl  = 5         bypass  = 2.0000    
  Opening plot unit= 79
 file=C:\Users\maxde\AppData\LocalLow\USN Kongsberg\MRCS\User\Generated\4B4TwoBody\output\main.pa0

  *** gshunt ramping started *** 
  *** gshunt ramping succeeded *** 
 ******  
 ternary circuits

 ****** operating point information tnom=  25.000 temp=  25.000 ******
 ****** operating point status is voltage   simulation time is   0.000e+00
       node    =voltage         node    =voltage         node    =voltage

 +   0:in_b0   = 0.000e+00    0:in_b1   = 0.000e+00    0:in_b2   = 0.000e+00
 +   0:in_b3   = 0.000e+00    0:out_t0  = 4.721e-01    0:out_t1  = 4.827e-01
 +   0:out_t2  = 4.744e-01    0:out_t3  = 4.714e-01    0:top     = 9.000e-01
 +   0:vdd     = 9.000e-01    1:i_b0_3_n= 9.000e-01    1:i_b0_3_p= 8.999e-01
 +   1:i_b1_2_n= 9.000e-01    1:i_b2_1_n= 9.000e-01    1:i_b2_1_p= 8.999e-01
 +   1:i_b3_0_n= 9.000e-01    1:i_b3_0_p= 8.999e-01    1:lg_hhddx= 9.000e-01
 +   1:lg_rrdrd= 9.000e-01    1:lg_5xc_9= 4.700e-01    1:lg_5xc_9= 2.951e-06
 +   1:lg_5xc_9= 9.000e-01    1:lg_5xx_1= 4.754e-01    1:lg_5xx_1= 2.476e-06
 +   1:lg_5xx_1= 9.000e-01    1:lg_dd4_1= 4.639e-01    1:lg_dd4_1= 3.602e-06
 +   1:lg_dd4_1= 9.000e-01    1:lg_he4_8= 4.688e-01    1:lg_he4_8= 3.066e-06
 +   1:lg_he4_8= 9.000e-01    1:lg_hhddx= 4.727e-01    1:lg_rrdrd= 4.727e-01
 +   1:lg_zzr_1= 4.817e-01    1:lg_zzr_1= 2.016e-06    1:lg_zzr_1= 9.000e-01
 +   2:down    = 7.282e-01    2:up      = 8.979e-01    3:down    = 7.282e-01
 +   3:up      = 8.980e-01    4:down    = 1.107e-02    4:p0      = 9.000e-01
 +   4:p1      = 9.000e-01    4:p2      = 4.688e-01    4:p3      = 1.107e-02
 +   4:up      = 8.896e-01    5:down    = 7.282e-01    5:up      = 8.980e-01
 +   6:down    = 7.282e-01    6:up      = 8.980e-01    7:down    = 2.477e-06
 +   7:up      = 2.286e-06    8:down    = 1.891e-02    8:p0      = 4.747e-01
 +   8:p1      = 4.700e-01    8:p2      = 9.000e-01    8:p3      = 8.926e-09
 +   8:p4      = 1.646e-01    8:p5      = 8.822e-01    8:p6      = 8.911e-01
 +   8:p7      = 9.489e-03    8:p8      = 1.879e-02    8:up      = 8.821e-01
 +   9:down    = 7.282e-01    9:up      = 8.980e-01   10:down    = 7.282e-01
 +  10:up      = 8.979e-01   11:down    = 8.386e-03   11:p0      = 2.524e-02
 +  11:p1      = 2.515e-02   11:p2      = 2.509e-02   11:p3      = 9.000e-01
 +  11:p4      = 8.993e-01   11:p5      = 4.199e-03   11:p6      = 8.386e-03
 +  11:p7      =-6.371e-11   11:p8      =-5.725e-04   12:down    = 7.282e-01
 +  12:up      = 8.980e-01   13:down    = 2.205e-02   13:p0      = 1.107e-02
 +  14:down    = 7.282e-01   14:up      = 8.980e-01   15:down    = 2.033e-02
 +  15:p0      = 4.815e-01   15:p1      = 9.000e-01   15:p2      = 1.754e-01
 +  15:p3      = 1.020e-02   15:p4      = 2.025e-02   15:up      = 8.904e-01
 +  16:down    = 2.910e-06   16:up      = 2.686e-06   17:down    = 7.282e-01
 +  17:up      = 8.980e-01   18:down    = 2.000e-06   18:up      = 1.846e-06
 +  19:down    = 2.459e-02   19:p0      = 6.396e-01   19:p1      = 9.000e-01
 +  19:p2      = 9.384e-09   19:p3      = 1.402e-02   19:p4      = 2.446e-02
 +  19:up      = 8.913e-01   20:down    = 1.628e-06   20:up      = 1.503e-06
 +  21:down    = 7.282e-01   21:up      = 8.980e-01   22:down    = 8.386e-03
 +  22:p0      = 8.993e-01   22:p1      = 4.727e-01   22:p2      = 8.993e-01
 +  22:p3      = 8.993e-01   22:p4      = 4.199e-03   23:down    = 7.282e-01
 +  23:up      = 8.979e-01   24:down    = 7.282e-01   24:up      = 8.980e-01
 +  25:down    = 2.383e-06   25:up      = 2.200e-06   26:down    = 2.162e-02
 +  26:p0      = 8.386e-01   26:p1      = 9.000e-01   26:p2      = 8.646e-09
 +  26:p3      = 4.467e-01   26:p4      = 4.467e-01   26:p5      = 8.913e-01
 +  26:p6      = 9.301e-03   26:p7      = 2.162e-02   26:up      = 8.826e-01
 +  27:p0      = 2.438e-02   27:up      = 8.940e-01   28:down    = 7.282e-01
 +  28:up      = 8.980e-01   29:down    = 7.282e-01   29:up      = 8.980e-01
 +  30:down    = 2.007e-02   30:p0      = 4.744e-01   30:p1      = 9.000e-01
 +  30:p2      = 1.142e-06   30:p3      = 1.007e-02   30:up      = 8.888e-01
 +  31:down    = 6.407e-03   31:p0      = 8.993e-01

 ******
 ternary circuits

 ****** transient analysis tnom=  25.000 temp=  25.000 ******
x

 time         voltage   
             in_b3      
  0.0000e+00  0.000e+00 
  1.0000e-11  0.000e+00 
  2.0000e-11  0.000e+00 
  3.0000e-11  0.000e+00 
  4.0000e-11  0.000e+00 
  5.0000e-11  0.000e+00 
  6.0000e-11  0.000e+00 
  7.0000e-11  0.000e+00 
  8.0000e-11  0.000e+00 
  9.0000e-11  0.000e+00 
  1.0000e-10  0.000e+00 
  1.1000e-10  0.000e+00 
  1.2000e-10  0.000e+00 
  1.3000e-10  0.000e+00 
  1.4000e-10  0.000e+00 
  1.5000e-10  0.000e+00 
  1.6000e-10  0.000e+00 
  1.7000e-10  0.000e+00 
  1.8000e-10  0.000e+00 
  1.9000e-10  0.000e+00 
  2.0000e-10  0.000e+00 
  2.1000e-10  0.000e+00 
  2.2000e-10  0.000e+00 
  2.3000e-10  0.000e+00 
  2.4000e-10  0.000e+00 
  2.5000e-10  0.000e+00 
  2.6000e-10  0.000e+00 
  2.7000e-10  0.000e+00 
  2.8000e-10  0.000e+00 
  2.9000e-10  0.000e+00 
  3.0000e-10  0.000e+00 
  3.1000e-10  0.000e+00 
  3.2000e-10  0.000e+00 
  3.3000e-10  0.000e+00 
  3.4000e-10  0.000e+00 
  3.5000e-10  0.000e+00 
  3.6000e-10  0.000e+00 
  3.7000e-10  0.000e+00 
  3.8000e-10  0.000e+00 
  3.9000e-10  0.000e+00 
  4.0000e-10  0.000e+00 
  4.1000e-10  0.000e+00 
  4.2000e-10  0.000e+00 
  4.3000e-10  0.000e+00 
  4.4000e-10  0.000e+00 
  4.5000e-10  0.000e+00 
  4.6000e-10  0.000e+00 
  4.7000e-10  0.000e+00 
  4.8000e-10  0.000e+00 
  4.9000e-10  0.000e+00 
  5.0000e-10  0.000e+00 
  5.1000e-10  0.000e+00 
  5.2000e-10  0.000e+00 
  5.3000e-10  0.000e+00 
  5.4000e-10  0.000e+00 
  5.5000e-10  0.000e+00 
  5.6000e-10  0.000e+00 
  5.7000e-10  0.000e+00 
  5.8000e-10  0.000e+00 
  5.9000e-10  0.000e+00 
  6.0000e-10  0.000e+00 
  6.1000e-10  0.000e+00 
  6.2000e-10  0.000e+00 
  6.3000e-10  0.000e+00 
  6.4000e-10  0.000e+00 
  6.5000e-10  0.000e+00 
  6.6000e-10  0.000e+00 
  6.7000e-10  0.000e+00 
  6.8000e-10  0.000e+00 
  6.9000e-10  0.000e+00 
  7.0000e-10  0.000e+00 
  7.1000e-10  0.000e+00 
  7.2000e-10  0.000e+00 
  7.3000e-10  0.000e+00 
  7.4000e-10  0.000e+00 
  7.5000e-10  0.000e+00 
  7.6000e-10  0.000e+00 
  7.7000e-10  0.000e+00 
  7.8000e-10  0.000e+00 
  7.9000e-10  0.000e+00 
  8.0000e-10  0.000e+00 
  8.1000e-10  0.000e+00 
  8.2000e-10  0.000e+00 
  8.3000e-10  0.000e+00 
  8.4000e-10  0.000e+00 
  8.5000e-10  0.000e+00 
  8.6000e-10  0.000e+00 
  8.7000e-10  0.000e+00 
  8.8000e-10  0.000e+00 
  8.9000e-10  0.000e+00 
  9.0000e-10  0.000e+00 
  9.1000e-10  0.000e+00 
  9.2000e-10  0.000e+00 
  9.3000e-10  0.000e+00 
  9.4000e-10  0.000e+00 
  9.5000e-10  0.000e+00 
  9.6000e-10  0.000e+00 
  9.7000e-10  0.000e+00 
  9.8000e-10  0.000e+00 
  9.9000e-10  0.000e+00 
  1.0000e-09  0.000e+00 
  1.0100e-09  0.000e+00 
  1.0200e-09  0.000e+00 
  1.0300e-09  0.000e+00 
  1.0400e-09  0.000e+00 
  1.0500e-09  0.000e+00 
  1.0600e-09  0.000e+00 
  1.0700e-09  0.000e+00 
  1.0800e-09  0.000e+00 
  1.0900e-09  0.000e+00 
  1.1000e-09  0.000e+00 
  1.1100e-09  0.000e+00 
  1.1200e-09  0.000e+00 
  1.1300e-09  0.000e+00 
  1.1400e-09  0.000e+00 
  1.1500e-09  0.000e+00 
  1.1600e-09  0.000e+00 
  1.1700e-09  0.000e+00 
  1.1800e-09  0.000e+00 
  1.1900e-09  0.000e+00 
  1.2000e-09  0.000e+00 
  1.2100e-09  0.000e+00 
  1.2200e-09  0.000e+00 
  1.2300e-09  0.000e+00 
  1.2400e-09  0.000e+00 
  1.2500e-09  0.000e+00 
  1.2600e-09  0.000e+00 
  1.2700e-09  0.000e+00 
  1.2800e-09  0.000e+00 
  1.2900e-09  0.000e+00 
  1.3000e-09  0.000e+00 
  1.3100e-09  0.000e+00 
  1.3200e-09  0.000e+00 
  1.3300e-09  0.000e+00 
  1.3400e-09  0.000e+00 
  1.3500e-09  0.000e+00 
  1.3600e-09  0.000e+00 
  1.3700e-09  0.000e+00 
  1.3800e-09  0.000e+00 
  1.3900e-09  0.000e+00 
  1.4000e-09  0.000e+00 
  1.4100e-09  0.000e+00 
  1.4200e-09  0.000e+00 
  1.4300e-09  0.000e+00 
  1.4400e-09  0.000e+00 
  1.4500e-09  0.000e+00 
  1.4600e-09  0.000e+00 
  1.4700e-09  0.000e+00 
  1.4800e-09  0.000e+00 
  1.4900e-09  0.000e+00 
  1.5000e-09  0.000e+00 
  1.5100e-09  0.000e+00 
  1.5200e-09  0.000e+00 
  1.5300e-09  0.000e+00 
  1.5400e-09  0.000e+00 
  1.5500e-09  0.000e+00 
  1.5600e-09  0.000e+00 
  1.5700e-09  0.000e+00 
  1.5800e-09  0.000e+00 
  1.5900e-09  0.000e+00 
  1.6000e-09  9.000e-01 
  1.6100e-09  9.000e-01 
  1.6200e-09  9.000e-01 
  1.6300e-09  9.000e-01 
  1.6400e-09  9.000e-01 
  1.6500e-09  9.000e-01 
  1.6600e-09  9.000e-01 
  1.6700e-09  9.000e-01 
  1.6800e-09  9.000e-01 
  1.6900e-09  9.000e-01 
  1.7000e-09  9.000e-01 
  1.7100e-09  9.000e-01 
  1.7200e-09  9.000e-01 
  1.7300e-09  9.000e-01 
  1.7400e-09  9.000e-01 
  1.7500e-09  9.000e-01 
  1.7600e-09  9.000e-01 
  1.7700e-09  9.000e-01 
  1.7800e-09  9.000e-01 
  1.7900e-09  9.000e-01 
  1.8000e-09  9.000e-01 
  1.8100e-09  9.000e-01 
  1.8200e-09  9.000e-01 
  1.8300e-09  9.000e-01 
  1.8400e-09  9.000e-01 
  1.8500e-09  9.000e-01 
  1.8600e-09  9.000e-01 
  1.8700e-09  9.000e-01 
  1.8800e-09  9.000e-01 
  1.8900e-09  9.000e-01 
  1.9000e-09  9.000e-01 
  1.9100e-09  9.000e-01 
  1.9200e-09  9.000e-01 
  1.9300e-09  9.000e-01 
  1.9400e-09  9.000e-01 
  1.9500e-09  9.000e-01 
  1.9600e-09  9.000e-01 
  1.9700e-09  9.000e-01 
  1.9800e-09  9.000e-01 
  1.9900e-09  9.000e-01 
  2.0000e-09  9.000e-01 
  2.0100e-09  9.000e-01 
  2.0200e-09  9.000e-01 
  2.0300e-09  9.000e-01 
  2.0400e-09  9.000e-01 
  2.0500e-09  9.000e-01 
  2.0600e-09  9.000e-01 
  2.0700e-09  9.000e-01 
  2.0800e-09  9.000e-01 
  2.0900e-09  9.000e-01 
  2.1000e-09  9.000e-01 
  2.1100e-09  9.000e-01 
  2.1200e-09  9.000e-01 
  2.1300e-09  9.000e-01 
  2.1400e-09  9.000e-01 
  2.1500e-09  9.000e-01 
  2.1600e-09  9.000e-01 
  2.1700e-09  9.000e-01 
  2.1800e-09  9.000e-01 
  2.1900e-09  9.000e-01 
  2.2000e-09  9.000e-01 
  2.2100e-09  9.000e-01 
  2.2200e-09  9.000e-01 
  2.2300e-09  9.000e-01 
  2.2400e-09  9.000e-01 
  2.2500e-09  9.000e-01 
  2.2600e-09  9.000e-01 
  2.2700e-09  9.000e-01 
  2.2800e-09  9.000e-01 
  2.2900e-09  9.000e-01 
  2.3000e-09  9.000e-01 
  2.3100e-09  9.000e-01 
  2.3200e-09  9.000e-01 
  2.3300e-09  9.000e-01 
  2.3400e-09  9.000e-01 
  2.3500e-09  9.000e-01 
  2.3600e-09  9.000e-01 
  2.3700e-09  9.000e-01 
  2.3800e-09  9.000e-01 
  2.3900e-09  9.000e-01 
  2.4000e-09  9.000e-01 
  2.4100e-09  9.000e-01 
  2.4200e-09  9.000e-01 
  2.4300e-09  9.000e-01 
  2.4400e-09  9.000e-01 
  2.4500e-09  9.000e-01 
  2.4600e-09  9.000e-01 
  2.4700e-09  9.000e-01 
  2.4800e-09  9.000e-01 
  2.4900e-09  9.000e-01 
  2.5000e-09  9.000e-01 
  2.5100e-09  9.000e-01 
  2.5200e-09  9.000e-01 
  2.5300e-09  9.000e-01 
  2.5400e-09  9.000e-01 
  2.5500e-09  9.000e-01 
  2.5600e-09  9.000e-01 
  2.5700e-09  9.000e-01 
  2.5800e-09  9.000e-01 
  2.5900e-09  9.000e-01 
  2.6000e-09  9.000e-01 
  2.6100e-09  9.000e-01 
  2.6200e-09  9.000e-01 
  2.6300e-09  9.000e-01 
  2.6400e-09  9.000e-01 
  2.6500e-09  9.000e-01 
  2.6600e-09  9.000e-01 
  2.6700e-09  9.000e-01 
  2.6800e-09  9.000e-01 
  2.6900e-09  9.000e-01 
  2.7000e-09  9.000e-01 
  2.7100e-09  9.000e-01 
  2.7200e-09  9.000e-01 
  2.7300e-09  9.000e-01 
  2.7400e-09  9.000e-01 
  2.7500e-09  9.000e-01 
  2.7600e-09  9.000e-01 
  2.7700e-09  9.000e-01 
  2.7800e-09  9.000e-01 
  2.7900e-09  9.000e-01 
  2.8000e-09  9.000e-01 
  2.8100e-09  9.000e-01 
  2.8200e-09  9.000e-01 
  2.8300e-09  9.000e-01 
  2.8400e-09  9.000e-01 
  2.8500e-09  9.000e-01 
  2.8600e-09  9.000e-01 
  2.8700e-09  9.000e-01 
  2.8800e-09  9.000e-01 
  2.8900e-09  9.000e-01 
  2.9000e-09  9.000e-01 
  2.9100e-09  9.000e-01 
  2.9200e-09  9.000e-01 
  2.9300e-09  9.000e-01 
  2.9400e-09  9.000e-01 
  2.9500e-09  9.000e-01 
  2.9600e-09  9.000e-01 
  2.9700e-09  9.000e-01 
  2.9800e-09  9.000e-01 
  2.9900e-09  9.000e-01 
  3.0000e-09  9.000e-01 
  3.0100e-09  9.000e-01 
  3.0200e-09  9.000e-01 
  3.0300e-09  9.000e-01 
  3.0400e-09  9.000e-01 
  3.0500e-09  9.000e-01 
  3.0600e-09  9.000e-01 
  3.0700e-09  9.000e-01 
  3.0800e-09  9.000e-01 
  3.0900e-09  9.000e-01 
  3.1000e-09  9.000e-01 
  3.1100e-09  9.000e-01 
  3.1200e-09  9.000e-01 
  3.1300e-09  9.000e-01 
  3.1400e-09  9.000e-01 
  3.1500e-09  9.000e-01 
  3.1600e-09  9.000e-01 
  3.1700e-09  9.000e-01 
  3.1800e-09  9.000e-01 
  3.1900e-09  9.000e-01 
  3.2000e-09  9.000e-01 
y
x

 time         voltage   
             in_b2      
  0.0000e+00  0.000e+00 
  1.0000e-11  0.000e+00 
  2.0000e-11  0.000e+00 
  3.0000e-11  0.000e+00 
  4.0000e-11  0.000e+00 
  5.0000e-11  0.000e+00 
  6.0000e-11  0.000e+00 
  7.0000e-11  0.000e+00 
  8.0000e-11  0.000e+00 
  9.0000e-11  0.000e+00 
  1.0000e-10  0.000e+00 
  1.1000e-10  0.000e+00 
  1.2000e-10  0.000e+00 
  1.3000e-10  0.000e+00 
  1.4000e-10  0.000e+00 
  1.5000e-10  0.000e+00 
  1.6000e-10  0.000e+00 
  1.7000e-10  0.000e+00 
  1.8000e-10  0.000e+00 
  1.9000e-10  0.000e+00 
  2.0000e-10  0.000e+00 
  2.1000e-10  0.000e+00 
  2.2000e-10  0.000e+00 
  2.3000e-10  0.000e+00 
  2.4000e-10  0.000e+00 
  2.5000e-10  0.000e+00 
  2.6000e-10  0.000e+00 
  2.7000e-10  0.000e+00 
  2.8000e-10  0.000e+00 
  2.9000e-10  0.000e+00 
  3.0000e-10  0.000e+00 
  3.1000e-10  0.000e+00 
  3.2000e-10  0.000e+00 
  3.3000e-10  0.000e+00 
  3.4000e-10  0.000e+00 
  3.5000e-10  0.000e+00 
  3.6000e-10  0.000e+00 
  3.7000e-10  0.000e+00 
  3.8000e-10  0.000e+00 
  3.9000e-10  0.000e+00 
  4.0000e-10  0.000e+00 
  4.1000e-10  0.000e+00 
  4.2000e-10  0.000e+00 
  4.3000e-10  0.000e+00 
  4.4000e-10  0.000e+00 
  4.5000e-10  0.000e+00 
  4.6000e-10  0.000e+00 
  4.7000e-10  0.000e+00 
  4.8000e-10  0.000e+00 
  4.9000e-10  0.000e+00 
  5.0000e-10  0.000e+00 
  5.1000e-10  0.000e+00 
  5.2000e-10  0.000e+00 
  5.3000e-10  0.000e+00 
  5.4000e-10  0.000e+00 
  5.5000e-10  0.000e+00 
  5.6000e-10  0.000e+00 
  5.7000e-10  0.000e+00 
  5.8000e-10  0.000e+00 
  5.9000e-10  0.000e+00 
  6.0000e-10  0.000e+00 
  6.1000e-10  0.000e+00 
  6.2000e-10  0.000e+00 
  6.3000e-10  0.000e+00 
  6.4000e-10  0.000e+00 
  6.5000e-10  0.000e+00 
  6.6000e-10  0.000e+00 
  6.7000e-10  0.000e+00 
  6.8000e-10  0.000e+00 
  6.9000e-10  0.000e+00 
  7.0000e-10  0.000e+00 
  7.1000e-10  0.000e+00 
  7.2000e-10  0.000e+00 
  7.3000e-10  0.000e+00 
  7.4000e-10  0.000e+00 
  7.5000e-10  0.000e+00 
  7.6000e-10  0.000e+00 
  7.7000e-10  0.000e+00 
  7.8000e-10  0.000e+00 
  7.9000e-10  0.000e+00 
  8.0000e-10  9.000e-01 
  8.1000e-10  9.000e-01 
  8.2000e-10  9.000e-01 
  8.3000e-10  9.000e-01 
  8.4000e-10  9.000e-01 
  8.5000e-10  9.000e-01 
  8.6000e-10  9.000e-01 
  8.7000e-10  9.000e-01 
  8.8000e-10  9.000e-01 
  8.9000e-10  9.000e-01 
  9.0000e-10  9.000e-01 
  9.1000e-10  9.000e-01 
  9.2000e-10  9.000e-01 
  9.3000e-10  9.000e-01 
  9.4000e-10  9.000e-01 
  9.5000e-10  9.000e-01 
  9.6000e-10  9.000e-01 
  9.7000e-10  9.000e-01 
  9.8000e-10  9.000e-01 
  9.9000e-10  9.000e-01 
  1.0000e-09  9.000e-01 
  1.0100e-09  9.000e-01 
  1.0200e-09  9.000e-01 
  1.0300e-09  9.000e-01 
  1.0400e-09  9.000e-01 
  1.0500e-09  9.000e-01 
  1.0600e-09  9.000e-01 
  1.0700e-09  9.000e-01 
  1.0800e-09  9.000e-01 
  1.0900e-09  9.000e-01 
  1.1000e-09  9.000e-01 
  1.1100e-09  9.000e-01 
  1.1200e-09  9.000e-01 
  1.1300e-09  9.000e-01 
  1.1400e-09  9.000e-01 
  1.1500e-09  9.000e-01 
  1.1600e-09  9.000e-01 
  1.1700e-09  9.000e-01 
  1.1800e-09  9.000e-01 
  1.1900e-09  9.000e-01 
  1.2000e-09  9.000e-01 
  1.2100e-09  9.000e-01 
  1.2200e-09  9.000e-01 
  1.2300e-09  9.000e-01 
  1.2400e-09  9.000e-01 
  1.2500e-09  9.000e-01 
  1.2600e-09  9.000e-01 
  1.2700e-09  9.000e-01 
  1.2800e-09  9.000e-01 
  1.2900e-09  9.000e-01 
  1.3000e-09  9.000e-01 
  1.3100e-09  9.000e-01 
  1.3200e-09  9.000e-01 
  1.3300e-09  9.000e-01 
  1.3400e-09  9.000e-01 
  1.3500e-09  9.000e-01 
  1.3600e-09  9.000e-01 
  1.3700e-09  9.000e-01 
  1.3800e-09  9.000e-01 
  1.3900e-09  9.000e-01 
  1.4000e-09  9.000e-01 
  1.4100e-09  9.000e-01 
  1.4200e-09  9.000e-01 
  1.4300e-09  9.000e-01 
  1.4400e-09  9.000e-01 
  1.4500e-09  9.000e-01 
  1.4600e-09  9.000e-01 
  1.4700e-09  9.000e-01 
  1.4800e-09  9.000e-01 
  1.4900e-09  9.000e-01 
  1.5000e-09  9.000e-01 
  1.5100e-09  9.000e-01 
  1.5200e-09  9.000e-01 
  1.5300e-09  9.000e-01 
  1.5400e-09  9.000e-01 
  1.5500e-09  9.000e-01 
  1.5600e-09  9.000e-01 
  1.5700e-09  9.000e-01 
  1.5800e-09  9.000e-01 
  1.5900e-09  9.000e-01 
  1.6000e-09  0.000e+00 
  1.6100e-09  0.000e+00 
  1.6200e-09  0.000e+00 
  1.6300e-09  0.000e+00 
  1.6400e-09  0.000e+00 
  1.6500e-09  0.000e+00 
  1.6600e-09  0.000e+00 
  1.6700e-09  0.000e+00 
  1.6800e-09  0.000e+00 
  1.6900e-09  0.000e+00 
  1.7000e-09  0.000e+00 
  1.7100e-09  0.000e+00 
  1.7200e-09  0.000e+00 
  1.7300e-09  0.000e+00 
  1.7400e-09  0.000e+00 
  1.7500e-09  0.000e+00 
  1.7600e-09  0.000e+00 
  1.7700e-09  0.000e+00 
  1.7800e-09  0.000e+00 
  1.7900e-09  0.000e+00 
  1.8000e-09  0.000e+00 
  1.8100e-09  0.000e+00 
  1.8200e-09  0.000e+00 
  1.8300e-09  0.000e+00 
  1.8400e-09  0.000e+00 
  1.8500e-09  0.000e+00 
  1.8600e-09  0.000e+00 
  1.8700e-09  0.000e+00 
  1.8800e-09  0.000e+00 
  1.8900e-09  0.000e+00 
  1.9000e-09  0.000e+00 
  1.9100e-09  0.000e+00 
  1.9200e-09  0.000e+00 
  1.9300e-09  0.000e+00 
  1.9400e-09  0.000e+00 
  1.9500e-09  0.000e+00 
  1.9600e-09  0.000e+00 
  1.9700e-09  0.000e+00 
  1.9800e-09  0.000e+00 
  1.9900e-09  0.000e+00 
  2.0000e-09  0.000e+00 
  2.0100e-09  0.000e+00 
  2.0200e-09  0.000e+00 
  2.0300e-09  0.000e+00 
  2.0400e-09  0.000e+00 
  2.0500e-09  0.000e+00 
  2.0600e-09  0.000e+00 
  2.0700e-09  0.000e+00 
  2.0800e-09  0.000e+00 
  2.0900e-09  0.000e+00 
  2.1000e-09  0.000e+00 
  2.1100e-09  0.000e+00 
  2.1200e-09  0.000e+00 
  2.1300e-09  0.000e+00 
  2.1400e-09  0.000e+00 
  2.1500e-09  0.000e+00 
  2.1600e-09  0.000e+00 
  2.1700e-09  0.000e+00 
  2.1800e-09  0.000e+00 
  2.1900e-09  0.000e+00 
  2.2000e-09  0.000e+00 
  2.2100e-09  0.000e+00 
  2.2200e-09  0.000e+00 
  2.2300e-09  0.000e+00 
  2.2400e-09  0.000e+00 
  2.2500e-09  0.000e+00 
  2.2600e-09  0.000e+00 
  2.2700e-09  0.000e+00 
  2.2800e-09  0.000e+00 
  2.2900e-09  0.000e+00 
  2.3000e-09  0.000e+00 
  2.3100e-09  0.000e+00 
  2.3200e-09  0.000e+00 
  2.3300e-09  0.000e+00 
  2.3400e-09  0.000e+00 
  2.3500e-09  0.000e+00 
  2.3600e-09  0.000e+00 
  2.3700e-09  0.000e+00 
  2.3800e-09  0.000e+00 
  2.3900e-09  0.000e+00 
  2.4000e-09  9.000e-01 
  2.4100e-09  9.000e-01 
  2.4200e-09  9.000e-01 
  2.4300e-09  9.000e-01 
  2.4400e-09  9.000e-01 
  2.4500e-09  9.000e-01 
  2.4600e-09  9.000e-01 
  2.4700e-09  9.000e-01 
  2.4800e-09  9.000e-01 
  2.4900e-09  9.000e-01 
  2.5000e-09  9.000e-01 
  2.5100e-09  9.000e-01 
  2.5200e-09  9.000e-01 
  2.5300e-09  9.000e-01 
  2.5400e-09  9.000e-01 
  2.5500e-09  9.000e-01 
  2.5600e-09  9.000e-01 
  2.5700e-09  9.000e-01 
  2.5800e-09  9.000e-01 
  2.5900e-09  9.000e-01 
  2.6000e-09  9.000e-01 
  2.6100e-09  9.000e-01 
  2.6200e-09  9.000e-01 
  2.6300e-09  9.000e-01 
  2.6400e-09  9.000e-01 
  2.6500e-09  9.000e-01 
  2.6600e-09  9.000e-01 
  2.6700e-09  9.000e-01 
  2.6800e-09  9.000e-01 
  2.6900e-09  9.000e-01 
  2.7000e-09  9.000e-01 
  2.7100e-09  9.000e-01 
  2.7200e-09  9.000e-01 
  2.7300e-09  9.000e-01 
  2.7400e-09  9.000e-01 
  2.7500e-09  9.000e-01 
  2.7600e-09  9.000e-01 
  2.7700e-09  9.000e-01 
  2.7800e-09  9.000e-01 
  2.7900e-09  9.000e-01 
  2.8000e-09  9.000e-01 
  2.8100e-09  9.000e-01 
  2.8200e-09  9.000e-01 
  2.8300e-09  9.000e-01 
  2.8400e-09  9.000e-01 
  2.8500e-09  9.000e-01 
  2.8600e-09  9.000e-01 
  2.8700e-09  9.000e-01 
  2.8800e-09  9.000e-01 
  2.8900e-09  9.000e-01 
  2.9000e-09  9.000e-01 
  2.9100e-09  9.000e-01 
  2.9200e-09  9.000e-01 
  2.9300e-09  9.000e-01 
  2.9400e-09  9.000e-01 
  2.9500e-09  9.000e-01 
  2.9600e-09  9.000e-01 
  2.9700e-09  9.000e-01 
  2.9800e-09  9.000e-01 
  2.9900e-09  9.000e-01 
  3.0000e-09  9.000e-01 
  3.0100e-09  9.000e-01 
  3.0200e-09  9.000e-01 
  3.0300e-09  9.000e-01 
  3.0400e-09  9.000e-01 
  3.0500e-09  9.000e-01 
  3.0600e-09  9.000e-01 
  3.0700e-09  9.000e-01 
  3.0800e-09  9.000e-01 
  3.0900e-09  9.000e-01 
  3.1000e-09  9.000e-01 
  3.1100e-09  9.000e-01 
  3.1200e-09  9.000e-01 
  3.1300e-09  9.000e-01 
  3.1400e-09  9.000e-01 
  3.1500e-09  9.000e-01 
  3.1600e-09  9.000e-01 
  3.1700e-09  9.000e-01 
  3.1800e-09  9.000e-01 
  3.1900e-09  9.000e-01 
  3.2000e-09  9.000e-01 
y
x

 time         voltage   
             in_b1      
  0.0000e+00  0.000e+00 
  1.0000e-11  0.000e+00 
  2.0000e-11  0.000e+00 
  3.0000e-11  0.000e+00 
  4.0000e-11  0.000e+00 
  5.0000e-11  0.000e+00 
  6.0000e-11  0.000e+00 
  7.0000e-11  0.000e+00 
  8.0000e-11  0.000e+00 
  9.0000e-11  0.000e+00 
  1.0000e-10  0.000e+00 
  1.1000e-10  0.000e+00 
  1.2000e-10  0.000e+00 
  1.3000e-10  0.000e+00 
  1.4000e-10  0.000e+00 
  1.5000e-10  0.000e+00 
  1.6000e-10  0.000e+00 
  1.7000e-10  0.000e+00 
  1.8000e-10  0.000e+00 
  1.9000e-10  0.000e+00 
  2.0000e-10  0.000e+00 
  2.1000e-10  0.000e+00 
  2.2000e-10  0.000e+00 
  2.3000e-10  0.000e+00 
  2.4000e-10  0.000e+00 
  2.5000e-10  0.000e+00 
  2.6000e-10  0.000e+00 
  2.7000e-10  0.000e+00 
  2.8000e-10  0.000e+00 
  2.9000e-10  0.000e+00 
  3.0000e-10  0.000e+00 
  3.1000e-10  0.000e+00 
  3.2000e-10  0.000e+00 
  3.3000e-10  0.000e+00 
  3.4000e-10  0.000e+00 
  3.5000e-10  0.000e+00 
  3.6000e-10  0.000e+00 
  3.7000e-10  0.000e+00 
  3.8000e-10  0.000e+00 
  3.9000e-10  0.000e+00 
  4.0000e-10  9.000e-01 
  4.1000e-10  9.000e-01 
  4.2000e-10  9.000e-01 
  4.3000e-10  9.000e-01 
  4.4000e-10  9.000e-01 
  4.5000e-10  9.000e-01 
  4.6000e-10  9.000e-01 
  4.7000e-10  9.000e-01 
  4.8000e-10  9.000e-01 
  4.9000e-10  9.000e-01 
  5.0000e-10  9.000e-01 
  5.1000e-10  9.000e-01 
  5.2000e-10  9.000e-01 
  5.3000e-10  9.000e-01 
  5.4000e-10  9.000e-01 
  5.5000e-10  9.000e-01 
  5.6000e-10  9.000e-01 
  5.7000e-10  9.000e-01 
  5.8000e-10  9.000e-01 
  5.9000e-10  9.000e-01 
  6.0000e-10  9.000e-01 
  6.1000e-10  9.000e-01 
  6.2000e-10  9.000e-01 
  6.3000e-10  9.000e-01 
  6.4000e-10  9.000e-01 
  6.5000e-10  9.000e-01 
  6.6000e-10  9.000e-01 
  6.7000e-10  9.000e-01 
  6.8000e-10  9.000e-01 
  6.9000e-10  9.000e-01 
  7.0000e-10  9.000e-01 
  7.1000e-10  9.000e-01 
  7.2000e-10  9.000e-01 
  7.3000e-10  9.000e-01 
  7.4000e-10  9.000e-01 
  7.5000e-10  9.000e-01 
  7.6000e-10  9.000e-01 
  7.7000e-10  9.000e-01 
  7.8000e-10  9.000e-01 
  7.9000e-10  9.000e-01 
  8.0000e-10  0.000e+00 
  8.1000e-10  0.000e+00 
  8.2000e-10  0.000e+00 
  8.3000e-10  0.000e+00 
  8.4000e-10  0.000e+00 
  8.5000e-10  0.000e+00 
  8.6000e-10  0.000e+00 
  8.7000e-10  0.000e+00 
  8.8000e-10  0.000e+00 
  8.9000e-10  0.000e+00 
  9.0000e-10  0.000e+00 
  9.1000e-10  0.000e+00 
  9.2000e-10  0.000e+00 
  9.3000e-10  0.000e+00 
  9.4000e-10  0.000e+00 
  9.5000e-10  0.000e+00 
  9.6000e-10  0.000e+00 
  9.7000e-10  0.000e+00 
  9.8000e-10  0.000e+00 
  9.9000e-10  0.000e+00 
  1.0000e-09  0.000e+00 
  1.0100e-09  0.000e+00 
  1.0200e-09  0.000e+00 
  1.0300e-09  0.000e+00 
  1.0400e-09  0.000e+00 
  1.0500e-09  0.000e+00 
  1.0600e-09  0.000e+00 
  1.0700e-09  0.000e+00 
  1.0800e-09  0.000e+00 
  1.0900e-09  0.000e+00 
  1.1000e-09  0.000e+00 
  1.1100e-09  0.000e+00 
  1.1200e-09  0.000e+00 
  1.1300e-09  0.000e+00 
  1.1400e-09  0.000e+00 
  1.1500e-09  0.000e+00 
  1.1600e-09  0.000e+00 
  1.1700e-09  0.000e+00 
  1.1800e-09  0.000e+00 
  1.1900e-09  0.000e+00 
  1.2000e-09  9.000e-01 
  1.2100e-09  9.000e-01 
  1.2200e-09  9.000e-01 
  1.2300e-09  9.000e-01 
  1.2400e-09  9.000e-01 
  1.2500e-09  9.000e-01 
  1.2600e-09  9.000e-01 
  1.2700e-09  9.000e-01 
  1.2800e-09  9.000e-01 
  1.2900e-09  9.000e-01 
  1.3000e-09  9.000e-01 
  1.3100e-09  9.000e-01 
  1.3200e-09  9.000e-01 
  1.3300e-09  9.000e-01 
  1.3400e-09  9.000e-01 
  1.3500e-09  9.000e-01 
  1.3600e-09  9.000e-01 
  1.3700e-09  9.000e-01 
  1.3800e-09  9.000e-01 
  1.3900e-09  9.000e-01 
  1.4000e-09  9.000e-01 
  1.4100e-09  9.000e-01 
  1.4200e-09  9.000e-01 
  1.4300e-09  9.000e-01 
  1.4400e-09  9.000e-01 
  1.4500e-09  9.000e-01 
  1.4600e-09  9.000e-01 
  1.4700e-09  9.000e-01 
  1.4800e-09  9.000e-01 
  1.4900e-09  9.000e-01 
  1.5000e-09  9.000e-01 
  1.5100e-09  9.000e-01 
  1.5200e-09  9.000e-01 
  1.5300e-09  9.000e-01 
  1.5400e-09  9.000e-01 
  1.5500e-09  9.000e-01 
  1.5600e-09  9.000e-01 
  1.5700e-09  9.000e-01 
  1.5800e-09  9.000e-01 
  1.5900e-09  9.000e-01 
  1.6000e-09  0.000e+00 
  1.6100e-09  0.000e+00 
  1.6200e-09  0.000e+00 
  1.6300e-09  0.000e+00 
  1.6400e-09  0.000e+00 
  1.6500e-09  0.000e+00 
  1.6600e-09  0.000e+00 
  1.6700e-09  0.000e+00 
  1.6800e-09  0.000e+00 
  1.6900e-09  0.000e+00 
  1.7000e-09  0.000e+00 
  1.7100e-09  0.000e+00 
  1.7200e-09  0.000e+00 
  1.7300e-09  0.000e+00 
  1.7400e-09  0.000e+00 
  1.7500e-09  0.000e+00 
  1.7600e-09  0.000e+00 
  1.7700e-09  0.000e+00 
  1.7800e-09  0.000e+00 
  1.7900e-09  0.000e+00 
  1.8000e-09  0.000e+00 
  1.8100e-09  0.000e+00 
  1.8200e-09  0.000e+00 
  1.8300e-09  0.000e+00 
  1.8400e-09  0.000e+00 
  1.8500e-09  0.000e+00 
  1.8600e-09  0.000e+00 
  1.8700e-09  0.000e+00 
  1.8800e-09  0.000e+00 
  1.8900e-09  0.000e+00 
  1.9000e-09  0.000e+00 
  1.9100e-09  0.000e+00 
  1.9200e-09  0.000e+00 
  1.9300e-09  0.000e+00 
  1.9400e-09  0.000e+00 
  1.9500e-09  0.000e+00 
  1.9600e-09  0.000e+00 
  1.9700e-09  0.000e+00 
  1.9800e-09  0.000e+00 
  1.9900e-09  0.000e+00 
  2.0000e-09  9.000e-01 
  2.0100e-09  9.000e-01 
  2.0200e-09  9.000e-01 
  2.0300e-09  9.000e-01 
  2.0400e-09  9.000e-01 
  2.0500e-09  9.000e-01 
  2.0600e-09  9.000e-01 
  2.0700e-09  9.000e-01 
  2.0800e-09  9.000e-01 
  2.0900e-09  9.000e-01 
  2.1000e-09  9.000e-01 
  2.1100e-09  9.000e-01 
  2.1200e-09  9.000e-01 
  2.1300e-09  9.000e-01 
  2.1400e-09  9.000e-01 
  2.1500e-09  9.000e-01 
  2.1600e-09  9.000e-01 
  2.1700e-09  9.000e-01 
  2.1800e-09  9.000e-01 
  2.1900e-09  9.000e-01 
  2.2000e-09  9.000e-01 
  2.2100e-09  9.000e-01 
  2.2200e-09  9.000e-01 
  2.2300e-09  9.000e-01 
  2.2400e-09  9.000e-01 
  2.2500e-09  9.000e-01 
  2.2600e-09  9.000e-01 
  2.2700e-09  9.000e-01 
  2.2800e-09  9.000e-01 
  2.2900e-09  9.000e-01 
  2.3000e-09  9.000e-01 
  2.3100e-09  9.000e-01 
  2.3200e-09  9.000e-01 
  2.3300e-09  9.000e-01 
  2.3400e-09  9.000e-01 
  2.3500e-09  9.000e-01 
  2.3600e-09  9.000e-01 
  2.3700e-09  9.000e-01 
  2.3800e-09  9.000e-01 
  2.3900e-09  9.000e-01 
  2.4000e-09  0.000e+00 
  2.4100e-09  0.000e+00 
  2.4200e-09  0.000e+00 
  2.4300e-09  0.000e+00 
  2.4400e-09  0.000e+00 
  2.4500e-09  0.000e+00 
  2.4600e-09  0.000e+00 
  2.4700e-09  0.000e+00 
  2.4800e-09  0.000e+00 
  2.4900e-09  0.000e+00 
  2.5000e-09  0.000e+00 
  2.5100e-09  0.000e+00 
  2.5200e-09  0.000e+00 
  2.5300e-09  0.000e+00 
  2.5400e-09  0.000e+00 
  2.5500e-09  0.000e+00 
  2.5600e-09  0.000e+00 
  2.5700e-09  0.000e+00 
  2.5800e-09  0.000e+00 
  2.5900e-09  0.000e+00 
  2.6000e-09  0.000e+00 
  2.6100e-09  0.000e+00 
  2.6200e-09  0.000e+00 
  2.6300e-09  0.000e+00 
  2.6400e-09  0.000e+00 
  2.6500e-09  0.000e+00 
  2.6600e-09  0.000e+00 
  2.6700e-09  0.000e+00 
  2.6800e-09  0.000e+00 
  2.6900e-09  0.000e+00 
  2.7000e-09  0.000e+00 
  2.7100e-09  0.000e+00 
  2.7200e-09  0.000e+00 
  2.7300e-09  0.000e+00 
  2.7400e-09  0.000e+00 
  2.7500e-09  0.000e+00 
  2.7600e-09  0.000e+00 
  2.7700e-09  0.000e+00 
  2.7800e-09  0.000e+00 
  2.7900e-09  0.000e+00 
  2.8000e-09  9.000e-01 
  2.8100e-09  9.000e-01 
  2.8200e-09  9.000e-01 
  2.8300e-09  9.000e-01 
  2.8400e-09  9.000e-01 
  2.8500e-09  9.000e-01 
  2.8600e-09  9.000e-01 
  2.8700e-09  9.000e-01 
  2.8800e-09  9.000e-01 
  2.8900e-09  9.000e-01 
  2.9000e-09  9.000e-01 
  2.9100e-09  9.000e-01 
  2.9200e-09  9.000e-01 
  2.9300e-09  9.000e-01 
  2.9400e-09  9.000e-01 
  2.9500e-09  9.000e-01 
  2.9600e-09  9.000e-01 
  2.9700e-09  9.000e-01 
  2.9800e-09  9.000e-01 
  2.9900e-09  9.000e-01 
  3.0000e-09  9.000e-01 
  3.0100e-09  9.000e-01 
  3.0200e-09  9.000e-01 
  3.0300e-09  9.000e-01 
  3.0400e-09  9.000e-01 
  3.0500e-09  9.000e-01 
  3.0600e-09  9.000e-01 
  3.0700e-09  9.000e-01 
  3.0800e-09  9.000e-01 
  3.0900e-09  9.000e-01 
  3.1000e-09  9.000e-01 
  3.1100e-09  9.000e-01 
  3.1200e-09  9.000e-01 
  3.1300e-09  9.000e-01 
  3.1400e-09  9.000e-01 
  3.1500e-09  9.000e-01 
  3.1600e-09  9.000e-01 
  3.1700e-09  9.000e-01 
  3.1800e-09  9.000e-01 
  3.1900e-09  9.000e-01 
  3.2000e-09  9.000e-01 
y
x

 time         voltage   
             in_b0      
  0.0000e+00  0.000e+00 
  1.0000e-11  0.000e+00 
  2.0000e-11  0.000e+00 
  3.0000e-11  0.000e+00 
  4.0000e-11  0.000e+00 
  5.0000e-11  0.000e+00 
  6.0000e-11  0.000e+00 
  7.0000e-11  0.000e+00 
  8.0000e-11  0.000e+00 
  9.0000e-11  0.000e+00 
  1.0000e-10  0.000e+00 
  1.1000e-10  0.000e+00 
  1.2000e-10  0.000e+00 
  1.3000e-10  0.000e+00 
  1.4000e-10  0.000e+00 
  1.5000e-10  0.000e+00 
  1.6000e-10  0.000e+00 
  1.7000e-10  0.000e+00 
  1.8000e-10  0.000e+00 
  1.9000e-10  0.000e+00 
  2.0000e-10  9.000e-01 
  2.1000e-10  9.000e-01 
  2.2000e-10  9.000e-01 
  2.3000e-10  9.000e-01 
  2.4000e-10  9.000e-01 
  2.5000e-10  9.000e-01 
  2.6000e-10  9.000e-01 
  2.7000e-10  9.000e-01 
  2.8000e-10  9.000e-01 
  2.9000e-10  9.000e-01 
  3.0000e-10  9.000e-01 
  3.1000e-10  9.000e-01 
  3.2000e-10  9.000e-01 
  3.3000e-10  9.000e-01 
  3.4000e-10  9.000e-01 
  3.5000e-10  9.000e-01 
  3.6000e-10  9.000e-01 
  3.7000e-10  9.000e-01 
  3.8000e-10  9.000e-01 
  3.9000e-10  9.000e-01 
  4.0000e-10  0.000e+00 
  4.1000e-10  0.000e+00 
  4.2000e-10  0.000e+00 
  4.3000e-10  0.000e+00 
  4.4000e-10  0.000e+00 
  4.5000e-10  0.000e+00 
  4.6000e-10  0.000e+00 
  4.7000e-10  0.000e+00 
  4.8000e-10  0.000e+00 
  4.9000e-10  0.000e+00 
  5.0000e-10  0.000e+00 
  5.1000e-10  0.000e+00 
  5.2000e-10  0.000e+00 
  5.3000e-10  0.000e+00 
  5.4000e-10  0.000e+00 
  5.5000e-10  0.000e+00 
  5.6000e-10  0.000e+00 
  5.7000e-10  0.000e+00 
  5.8000e-10  0.000e+00 
  5.9000e-10  0.000e+00 
  6.0000e-10  9.000e-01 
  6.1000e-10  9.000e-01 
  6.2000e-10  9.000e-01 
  6.3000e-10  9.000e-01 
  6.4000e-10  9.000e-01 
  6.5000e-10  9.000e-01 
  6.6000e-10  9.000e-01 
  6.7000e-10  9.000e-01 
  6.8000e-10  9.000e-01 
  6.9000e-10  9.000e-01 
  7.0000e-10  9.000e-01 
  7.1000e-10  9.000e-01 
  7.2000e-10  9.000e-01 
  7.3000e-10  9.000e-01 
  7.4000e-10  9.000e-01 
  7.5000e-10  9.000e-01 
  7.6000e-10  9.000e-01 
  7.7000e-10  9.000e-01 
  7.8000e-10  9.000e-01 
  7.9000e-10  9.000e-01 
  8.0000e-10  0.000e+00 
  8.1000e-10  0.000e+00 
  8.2000e-10  0.000e+00 
  8.3000e-10  0.000e+00 
  8.4000e-10  0.000e+00 
  8.5000e-10  0.000e+00 
  8.6000e-10  0.000e+00 
  8.7000e-10  0.000e+00 
  8.8000e-10  0.000e+00 
  8.9000e-10  0.000e+00 
  9.0000e-10  0.000e+00 
  9.1000e-10  0.000e+00 
  9.2000e-10  0.000e+00 
  9.3000e-10  0.000e+00 
  9.4000e-10  0.000e+00 
  9.5000e-10  0.000e+00 
  9.6000e-10  0.000e+00 
  9.7000e-10  0.000e+00 
  9.8000e-10  0.000e+00 
  9.9000e-10  0.000e+00 
  1.0000e-09  9.000e-01 
  1.0100e-09  9.000e-01 
  1.0200e-09  9.000e-01 
  1.0300e-09  9.000e-01 
  1.0400e-09  9.000e-01 
  1.0500e-09  9.000e-01 
  1.0600e-09  9.000e-01 
  1.0700e-09  9.000e-01 
  1.0800e-09  9.000e-01 
  1.0900e-09  9.000e-01 
  1.1000e-09  9.000e-01 
  1.1100e-09  9.000e-01 
  1.1200e-09  9.000e-01 
  1.1300e-09  9.000e-01 
  1.1400e-09  9.000e-01 
  1.1500e-09  9.000e-01 
  1.1600e-09  9.000e-01 
  1.1700e-09  9.000e-01 
  1.1800e-09  9.000e-01 
  1.1900e-09  9.000e-01 
  1.2000e-09  0.000e+00 
  1.2100e-09  0.000e+00 
  1.2200e-09  0.000e+00 
  1.2300e-09  0.000e+00 
  1.2400e-09  0.000e+00 
  1.2500e-09  0.000e+00 
  1.2600e-09  0.000e+00 
  1.2700e-09  0.000e+00 
  1.2800e-09  0.000e+00 
  1.2900e-09  0.000e+00 
  1.3000e-09  0.000e+00 
  1.3100e-09  0.000e+00 
  1.3200e-09  0.000e+00 
  1.3300e-09  0.000e+00 
  1.3400e-09  0.000e+00 
  1.3500e-09  0.000e+00 
  1.3600e-09  0.000e+00 
  1.3700e-09  0.000e+00 
  1.3800e-09  0.000e+00 
  1.3900e-09  0.000e+00 
  1.4000e-09  9.000e-01 
  1.4100e-09  9.000e-01 
  1.4200e-09  9.000e-01 
  1.4300e-09  9.000e-01 
  1.4400e-09  9.000e-01 
  1.4500e-09  9.000e-01 
  1.4600e-09  9.000e-01 
  1.4700e-09  9.000e-01 
  1.4800e-09  9.000e-01 
  1.4900e-09  9.000e-01 
  1.5000e-09  9.000e-01 
  1.5100e-09  9.000e-01 
  1.5200e-09  9.000e-01 
  1.5300e-09  9.000e-01 
  1.5400e-09  9.000e-01 
  1.5500e-09  9.000e-01 
  1.5600e-09  9.000e-01 
  1.5700e-09  9.000e-01 
  1.5800e-09  9.000e-01 
  1.5900e-09  9.000e-01 
  1.6000e-09  0.000e+00 
  1.6100e-09  0.000e+00 
  1.6200e-09  0.000e+00 
  1.6300e-09  0.000e+00 
  1.6400e-09  0.000e+00 
  1.6500e-09  0.000e+00 
  1.6600e-09  0.000e+00 
  1.6700e-09  0.000e+00 
  1.6800e-09  0.000e+00 
  1.6900e-09  0.000e+00 
  1.7000e-09  0.000e+00 
  1.7100e-09  0.000e+00 
  1.7200e-09  0.000e+00 
  1.7300e-09  0.000e+00 
  1.7400e-09  0.000e+00 
  1.7500e-09  0.000e+00 
  1.7600e-09  0.000e+00 
  1.7700e-09  0.000e+00 
  1.7800e-09  0.000e+00 
  1.7900e-09  0.000e+00 
  1.8000e-09  9.000e-01 
  1.8100e-09  9.000e-01 
  1.8200e-09  9.000e-01 
  1.8300e-09  9.000e-01 
  1.8400e-09  9.000e-01 
  1.8500e-09  9.000e-01 
  1.8600e-09  9.000e-01 
  1.8700e-09  9.000e-01 
  1.8800e-09  9.000e-01 
  1.8900e-09  9.000e-01 
  1.9000e-09  9.000e-01 
  1.9100e-09  9.000e-01 
  1.9200e-09  9.000e-01 
  1.9300e-09  9.000e-01 
  1.9400e-09  9.000e-01 
  1.9500e-09  9.000e-01 
  1.9600e-09  9.000e-01 
  1.9700e-09  9.000e-01 
  1.9800e-09  9.000e-01 
  1.9900e-09  9.000e-01 
  2.0000e-09  0.000e+00 
  2.0100e-09  0.000e+00 
  2.0200e-09  0.000e+00 
  2.0300e-09  0.000e+00 
  2.0400e-09  0.000e+00 
  2.0500e-09  0.000e+00 
  2.0600e-09  0.000e+00 
  2.0700e-09  0.000e+00 
  2.0800e-09  0.000e+00 
  2.0900e-09  0.000e+00 
  2.1000e-09  0.000e+00 
  2.1100e-09  0.000e+00 
  2.1200e-09  0.000e+00 
  2.1300e-09  0.000e+00 
  2.1400e-09  0.000e+00 
  2.1500e-09  0.000e+00 
  2.1600e-09  0.000e+00 
  2.1700e-09  0.000e+00 
  2.1800e-09  0.000e+00 
  2.1900e-09  0.000e+00 
  2.2000e-09  9.000e-01 
  2.2100e-09  9.000e-01 
  2.2200e-09  9.000e-01 
  2.2300e-09  9.000e-01 
  2.2400e-09  9.000e-01 
  2.2500e-09  9.000e-01 
  2.2600e-09  9.000e-01 
  2.2700e-09  9.000e-01 
  2.2800e-09  9.000e-01 
  2.2900e-09  9.000e-01 
  2.3000e-09  9.000e-01 
  2.3100e-09  9.000e-01 
  2.3200e-09  9.000e-01 
  2.3300e-09  9.000e-01 
  2.3400e-09  9.000e-01 
  2.3500e-09  9.000e-01 
  2.3600e-09  9.000e-01 
  2.3700e-09  9.000e-01 
  2.3800e-09  9.000e-01 
  2.3900e-09  9.000e-01 
  2.4000e-09  0.000e+00 
  2.4100e-09  0.000e+00 
  2.4200e-09  0.000e+00 
  2.4300e-09  0.000e+00 
  2.4400e-09  0.000e+00 
  2.4500e-09  0.000e+00 
  2.4600e-09  0.000e+00 
  2.4700e-09  0.000e+00 
  2.4800e-09  0.000e+00 
  2.4900e-09  0.000e+00 
  2.5000e-09  0.000e+00 
  2.5100e-09  0.000e+00 
  2.5200e-09  0.000e+00 
  2.5300e-09  0.000e+00 
  2.5400e-09  0.000e+00 
  2.5500e-09  0.000e+00 
  2.5600e-09  0.000e+00 
  2.5700e-09  0.000e+00 
  2.5800e-09  0.000e+00 
  2.5900e-09  0.000e+00 
  2.6000e-09  9.000e-01 
  2.6100e-09  9.000e-01 
  2.6200e-09  9.000e-01 
  2.6300e-09  9.000e-01 
  2.6400e-09  9.000e-01 
  2.6500e-09  9.000e-01 
  2.6600e-09  9.000e-01 
  2.6700e-09  9.000e-01 
  2.6800e-09  9.000e-01 
  2.6900e-09  9.000e-01 
  2.7000e-09  9.000e-01 
  2.7100e-09  9.000e-01 
  2.7200e-09  9.000e-01 
  2.7300e-09  9.000e-01 
  2.7400e-09  9.000e-01 
  2.7500e-09  9.000e-01 
  2.7600e-09  9.000e-01 
  2.7700e-09  9.000e-01 
  2.7800e-09  9.000e-01 
  2.7900e-09  9.000e-01 
  2.8000e-09  0.000e+00 
  2.8100e-09  0.000e+00 
  2.8200e-09  0.000e+00 
  2.8300e-09  0.000e+00 
  2.8400e-09  0.000e+00 
  2.8500e-09  0.000e+00 
  2.8600e-09  0.000e+00 
  2.8700e-09  0.000e+00 
  2.8800e-09  0.000e+00 
  2.8900e-09  0.000e+00 
  2.9000e-09  0.000e+00 
  2.9100e-09  0.000e+00 
  2.9200e-09  0.000e+00 
  2.9300e-09  0.000e+00 
  2.9400e-09  0.000e+00 
  2.9500e-09  0.000e+00 
  2.9600e-09  0.000e+00 
  2.9700e-09  0.000e+00 
  2.9800e-09  0.000e+00 
  2.9900e-09  0.000e+00 
  3.0000e-09  9.000e-01 
  3.0100e-09  9.000e-01 
  3.0200e-09  9.000e-01 
  3.0300e-09  9.000e-01 
  3.0400e-09  9.000e-01 
  3.0500e-09  9.000e-01 
  3.0600e-09  9.000e-01 
  3.0700e-09  9.000e-01 
  3.0800e-09  9.000e-01 
  3.0900e-09  9.000e-01 
  3.1000e-09  9.000e-01 
  3.1100e-09  9.000e-01 
  3.1200e-09  9.000e-01 
  3.1300e-09  9.000e-01 
  3.1400e-09  9.000e-01 
  3.1500e-09  9.000e-01 
  3.1600e-09  9.000e-01 
  3.1700e-09  9.000e-01 
  3.1800e-09  9.000e-01 
  3.1900e-09  9.000e-01 
  3.2000e-09  9.000e-01 
y
x

 time         voltage   
             out_t3     
  0.0000e+00  4.714e-01 
  1.0000e-11  4.714e-01 
  2.0000e-11  4.714e-01 
  3.0000e-11  4.714e-01 
  4.0000e-11  4.714e-01 
  5.0000e-11  4.714e-01 
  6.0000e-11  4.714e-01 
  7.0000e-11  4.714e-01 
  8.0000e-11  4.714e-01 
  9.0000e-11  4.714e-01 
  1.0000e-10  4.714e-01 
  1.1000e-10  4.714e-01 
  1.2000e-10  4.714e-01 
  1.3000e-10  4.714e-01 
  1.4000e-10  4.714e-01 
  1.5000e-10  4.714e-01 
  1.6000e-10  4.714e-01 
  1.7000e-10  4.714e-01 
  1.8000e-10  4.714e-01 
  1.9000e-10  4.714e-01 
  2.0000e-10  4.714e-01 
  2.1000e-10  4.714e-01 
  2.2000e-10  4.714e-01 
  2.3000e-10  4.714e-01 
  2.4000e-10  4.714e-01 
  2.5000e-10  4.714e-01 
  2.6000e-10  4.714e-01 
  2.7000e-10  4.714e-01 
  2.8000e-10  4.714e-01 
  2.9000e-10  4.714e-01 
  3.0000e-10  4.714e-01 
  3.1000e-10  4.714e-01 
  3.2000e-10  4.714e-01 
  3.3000e-10  4.714e-01 
  3.4000e-10  4.714e-01 
  3.5000e-10  4.714e-01 
  3.6000e-10  4.714e-01 
  3.7000e-10  4.714e-01 
  3.8000e-10  4.714e-01 
  3.9000e-10  4.714e-01 
  4.0000e-10  4.714e-01 
  4.1000e-10  4.714e-01 
  4.2000e-10  4.714e-01 
  4.3000e-10  4.714e-01 
  4.4000e-10  4.714e-01 
  4.5000e-10  4.714e-01 
  4.6000e-10  4.714e-01 
  4.7000e-10  4.714e-01 
  4.8000e-10  4.714e-01 
  4.9000e-10  4.714e-01 
  5.0000e-10  4.714e-01 
  5.1000e-10  4.714e-01 
  5.2000e-10  4.714e-01 
  5.3000e-10  4.714e-01 
  5.4000e-10  4.714e-01 
  5.5000e-10  4.714e-01 
  5.6000e-10  4.714e-01 
  5.7000e-10  4.714e-01 
  5.8000e-10  4.714e-01 
  5.9000e-10  4.714e-01 
  6.0000e-10  4.714e-01 
  6.1000e-10  4.714e-01 
  6.2000e-10  4.714e-01 
  6.3000e-10  4.714e-01 
  6.4000e-10  4.714e-01 
  6.5000e-10  4.714e-01 
  6.6000e-10  4.714e-01 
  6.7000e-10  4.714e-01 
  6.8000e-10  4.714e-01 
  6.9000e-10  4.714e-01 
  7.0000e-10  4.714e-01 
  7.1000e-10  4.714e-01 
  7.2000e-10  4.714e-01 
  7.3000e-10  4.714e-01 
  7.4000e-10  4.714e-01 
  7.5000e-10  4.714e-01 
  7.6000e-10  4.714e-01 
  7.7000e-10  4.714e-01 
  7.8000e-10  4.714e-01 
  7.9000e-10  4.714e-01 
  8.0000e-10  4.714e-01 
  8.1000e-10  4.714e-01 
  8.2000e-10  4.714e-01 
  8.3000e-10  4.713e-01 
  8.4000e-10  4.714e-01 
  8.5000e-10  4.714e-01 
  8.6000e-10  4.714e-01 
  8.7000e-10  4.714e-01 
  8.8000e-10  4.714e-01 
  8.9000e-10  4.714e-01 
  9.0000e-10  4.714e-01 
  9.1000e-10  4.714e-01 
  9.2000e-10  4.714e-01 
  9.3000e-10  4.714e-01 
  9.4000e-10  4.714e-01 
  9.5000e-10  4.714e-01 
  9.6000e-10  4.714e-01 
  9.7000e-10  4.714e-01 
  9.8000e-10  4.714e-01 
  9.9000e-10  4.714e-01 
  1.0000e-09  4.714e-01 
  1.0100e-09  4.714e-01 
  1.0200e-09  4.714e-01 
  1.0300e-09  4.714e-01 
  1.0400e-09  4.714e-01 
  1.0500e-09  4.713e-01 
  1.0600e-09  4.705e-01 
  1.0700e-09  4.700e-01 
  1.0800e-09  4.748e-01 
  1.0900e-09  4.751e-01 
  1.1000e-09  4.751e-01 
  1.1100e-09  4.751e-01 
  1.1200e-09  4.751e-01 
  1.1300e-09  4.751e-01 
  1.1400e-09  4.751e-01 
  1.1500e-09  4.751e-01 
  1.1600e-09  4.751e-01 
  1.1700e-09  4.751e-01 
  1.1800e-09  4.751e-01 
  1.1900e-09  4.751e-01 
  1.2000e-09  4.751e-01 
  1.2100e-09  4.751e-01 
  1.2200e-09  4.751e-01 
  1.2300e-09  4.751e-01 
  1.2400e-09  4.751e-01 
  1.2500e-09  4.751e-01 
  1.2600e-09  4.751e-01 
  1.2700e-09  4.751e-01 
  1.2800e-09  4.751e-01 
  1.2900e-09  4.751e-01 
  1.3000e-09  4.751e-01 
  1.3100e-09  4.751e-01 
  1.3200e-09  4.751e-01 
  1.3300e-09  4.751e-01 
  1.3400e-09  4.751e-01 
  1.3500e-09  4.751e-01 
  1.3600e-09  4.751e-01 
  1.3700e-09  4.751e-01 
  1.3800e-09  4.751e-01 
  1.3900e-09  4.751e-01 
  1.4000e-09  4.751e-01 
  1.4100e-09  4.751e-01 
  1.4200e-09  4.751e-01 
  1.4300e-09  4.751e-01 
  1.4400e-09  4.751e-01 
  1.4500e-09  4.751e-01 
  1.4600e-09  4.751e-01 
  1.4700e-09  4.751e-01 
  1.4800e-09  4.751e-01 
  1.4900e-09  4.751e-01 
  1.5000e-09  4.751e-01 
  1.5100e-09  4.751e-01 
  1.5200e-09  4.751e-01 
  1.5300e-09  4.751e-01 
  1.5400e-09  4.751e-01 
  1.5500e-09  4.751e-01 
  1.5600e-09  4.751e-01 
  1.5700e-09  4.751e-01 
  1.5800e-09  4.751e-01 
  1.5900e-09  4.751e-01 
  1.6000e-09  4.709e-01 
  1.6100e-09  8.986e-01 
  1.6200e-09  9.002e-01 
  1.6300e-09  8.402e-01 
  1.6400e-09  4.819e-01 
  1.6500e-09  4.752e-01 
  1.6600e-09  4.751e-01 
  1.6700e-09  4.751e-01 
  1.6800e-09  4.751e-01 
  1.6900e-09  4.751e-01 
  1.7000e-09  4.751e-01 
  1.7100e-09  4.751e-01 
  1.7200e-09  4.751e-01 
  1.7300e-09  4.751e-01 
  1.7400e-09  4.751e-01 
  1.7500e-09  4.751e-01 
  1.7600e-09  4.751e-01 
  1.7700e-09  4.751e-01 
  1.7800e-09  4.751e-01 
  1.7900e-09  4.751e-01 
  1.8000e-09  4.751e-01 
  1.8100e-09  4.751e-01 
  1.8200e-09  4.751e-01 
  1.8300e-09  4.751e-01 
  1.8400e-09  4.751e-01 
  1.8500e-09  4.751e-01 
  1.8600e-09  4.751e-01 
  1.8700e-09  4.751e-01 
  1.8800e-09  4.751e-01 
  1.8900e-09  4.751e-01 
  1.9000e-09  4.751e-01 
  1.9100e-09  4.751e-01 
  1.9200e-09  4.751e-01 
  1.9300e-09  4.751e-01 
  1.9400e-09  4.751e-01 
  1.9500e-09  4.751e-01 
  1.9600e-09  4.751e-01 
  1.9700e-09  4.751e-01 
  1.9800e-09  4.751e-01 
  1.9900e-09  4.751e-01 
  2.0000e-09  4.751e-01 
  2.0100e-09  4.751e-01 
  2.0200e-09  4.751e-01 
  2.0300e-09  4.751e-01 
  2.0400e-09  4.751e-01 
  2.0500e-09  4.751e-01 
  2.0600e-09  4.751e-01 
  2.0700e-09  4.751e-01 
  2.0800e-09  4.751e-01 
  2.0900e-09  4.751e-01 
  2.1000e-09  4.751e-01 
  2.1100e-09  4.751e-01 
  2.1200e-09  4.751e-01 
  2.1300e-09  4.751e-01 
  2.1400e-09  4.751e-01 
  2.1500e-09  4.751e-01 
  2.1600e-09  4.751e-01 
  2.1700e-09  4.751e-01 
  2.1800e-09  4.751e-01 
  2.1900e-09  4.751e-01 
  2.2000e-09  4.751e-01 
  2.2100e-09  4.751e-01 
  2.2200e-09  4.751e-01 
  2.2300e-09  4.751e-01 
  2.2400e-09  4.751e-01 
  2.2500e-09  4.751e-01 
  2.2600e-09  4.751e-01 
  2.2700e-09  4.751e-01 
  2.2800e-09  4.751e-01 
  2.2900e-09  4.751e-01 
  2.3000e-09  4.751e-01 
  2.3100e-09  4.751e-01 
  2.3200e-09  4.751e-01 
  2.3300e-09  4.751e-01 
  2.3400e-09  4.751e-01 
  2.3500e-09  4.751e-01 
  2.3600e-09  4.751e-01 
  2.3700e-09  4.751e-01 
  2.3800e-09  4.751e-01 
  2.3900e-09  4.751e-01 
  2.4000e-09  4.751e-01 
  2.4100e-09  4.751e-01 
  2.4200e-09  4.752e-01 
  2.4300e-09  4.751e-01 
  2.4400e-09  4.751e-01 
  2.4500e-09  4.751e-01 
  2.4600e-09  4.751e-01 
  2.4700e-09  4.751e-01 
  2.4800e-09  4.751e-01 
  2.4900e-09  4.751e-01 
  2.5000e-09  4.751e-01 
  2.5100e-09  4.751e-01 
  2.5200e-09  4.751e-01 
  2.5300e-09  4.751e-01 
  2.5400e-09  4.751e-01 
  2.5500e-09  4.751e-01 
  2.5600e-09  4.751e-01 
  2.5700e-09  4.751e-01 
  2.5800e-09  4.751e-01 
  2.5900e-09  4.751e-01 
  2.6000e-09  4.751e-01 
  2.6100e-09  4.751e-01 
  2.6200e-09  4.751e-01 
  2.6300e-09  4.751e-01 
  2.6400e-09  4.752e-01 
  2.6500e-09  4.747e-01 
  2.6600e-09  4.740e-01 
  2.6700e-09  5.170e-01 
  2.6800e-09  8.921e-01 
  2.6900e-09  9.022e-01 
  2.7000e-09  5.560e-01 
  2.7100e-09  4.754e-01 
  2.7200e-09  4.751e-01 
  2.7300e-09  4.751e-01 
  2.7400e-09  4.751e-01 
  2.7500e-09  4.751e-01 
  2.7600e-09  4.751e-01 
  2.7700e-09  4.751e-01 
  2.7800e-09  4.751e-01 
  2.7900e-09  4.751e-01 
  2.8000e-09  4.751e-01 
  2.8100e-09  4.751e-01 
  2.8200e-09  4.751e-01 
  2.8300e-09  4.751e-01 
  2.8400e-09  4.751e-01 
  2.8500e-09  4.752e-01 
  2.8600e-09  4.742e-01 
  2.8700e-09  4.769e-01 
  2.8800e-09  8.189e-01 
  2.8900e-09  8.987e-01 
  2.9000e-09  8.995e-01 
  2.9100e-09  8.997e-01 
  2.9200e-09  8.998e-01 
  2.9300e-09  8.998e-01 
  2.9400e-09  8.999e-01 
  2.9500e-09  8.999e-01 
  2.9600e-09  8.999e-01 
  2.9700e-09  8.999e-01 
  2.9800e-09  8.999e-01 
  2.9900e-09  8.999e-01 
  3.0000e-09  8.999e-01 
  3.0100e-09  8.999e-01 
  3.0200e-09  8.999e-01 
  3.0300e-09  9.000e-01 
  3.0400e-09  9.000e-01 
  3.0500e-09  9.000e-01 
  3.0600e-09  9.000e-01 
  3.0700e-09  9.000e-01 
  3.0800e-09  9.000e-01 
  3.0900e-09  9.000e-01 
  3.1000e-09  9.000e-01 
  3.1100e-09  9.000e-01 
  3.1200e-09  9.000e-01 
  3.1300e-09  9.000e-01 
  3.1400e-09  9.000e-01 
  3.1500e-09  9.000e-01 
  3.1600e-09  9.000e-01 
  3.1700e-09  9.000e-01 
  3.1800e-09  9.000e-01 
  3.1900e-09  9.000e-01 
  3.2000e-09  9.000e-01 
y
x

 time         voltage   
             out_t2     
  0.0000e+00  4.744e-01 
  1.0000e-11  4.744e-01 
  2.0000e-11  4.744e-01 
  3.0000e-11  4.744e-01 
  4.0000e-11  4.744e-01 
  5.0000e-11  4.744e-01 
  6.0000e-11  4.744e-01 
  7.0000e-11  4.744e-01 
  8.0000e-11  4.744e-01 
  9.0000e-11  4.744e-01 
  1.0000e-10  4.744e-01 
  1.1000e-10  4.744e-01 
  1.2000e-10  4.744e-01 
  1.3000e-10  4.744e-01 
  1.4000e-10  4.744e-01 
  1.5000e-10  4.744e-01 
  1.6000e-10  4.744e-01 
  1.7000e-10  4.744e-01 
  1.8000e-10  4.744e-01 
  1.9000e-10  4.744e-01 
  2.0000e-10  4.744e-01 
  2.1000e-10  4.744e-01 
  2.2000e-10  4.744e-01 
  2.3000e-10  4.744e-01 
  2.4000e-10  4.744e-01 
  2.5000e-10  4.744e-01 
  2.6000e-10  4.744e-01 
  2.7000e-10  4.744e-01 
  2.8000e-10  4.744e-01 
  2.9000e-10  4.744e-01 
  3.0000e-10  4.744e-01 
  3.1000e-10  4.744e-01 
  3.2000e-10  4.744e-01 
  3.3000e-10  4.744e-01 
  3.4000e-10  4.744e-01 
  3.5000e-10  4.744e-01 
  3.6000e-10  4.744e-01 
  3.7000e-10  4.744e-01 
  3.8000e-10  4.744e-01 
  3.9000e-10  4.744e-01 
  4.0000e-10  4.744e-01 
  4.1000e-10  4.744e-01 
  4.2000e-10  4.744e-01 
  4.3000e-10  4.744e-01 
  4.4000e-10  4.744e-01 
  4.5000e-10  4.743e-01 
  4.6000e-10  4.743e-01 
  4.7000e-10  4.743e-01 
  4.8000e-10  4.743e-01 
  4.9000e-10  4.743e-01 
  5.0000e-10  4.743e-01 
  5.1000e-10  4.743e-01 
  5.2000e-10  4.743e-01 
  5.3000e-10  4.743e-01 
  5.4000e-10  4.743e-01 
  5.5000e-10  4.743e-01 
  5.6000e-10  4.743e-01 
  5.7000e-10  4.743e-01 
  5.8000e-10  4.743e-01 
  5.9000e-10  4.743e-01 
  6.0000e-10  4.743e-01 
  6.1000e-10  4.743e-01 
  6.2000e-10  4.743e-01 
  6.3000e-10  4.743e-01 
  6.4000e-10  4.743e-01 
  6.5000e-10  4.743e-01 
  6.6000e-10  4.743e-01 
  6.7000e-10  4.743e-01 
  6.8000e-10  4.743e-01 
  6.9000e-10  4.743e-01 
  7.0000e-10  4.743e-01 
  7.1000e-10  4.743e-01 
  7.2000e-10  4.743e-01 
  7.3000e-10  4.743e-01 
  7.4000e-10  4.743e-01 
  7.5000e-10  4.743e-01 
  7.6000e-10  4.743e-01 
  7.7000e-10  4.743e-01 
  7.8000e-10  4.743e-01 
  7.9000e-10  4.743e-01 
  8.0000e-10  4.744e-01 
  8.1000e-10  4.743e-01 
  8.2000e-10  4.748e-01 
  8.3000e-10  4.588e-01 
  8.4000e-10  4.700e-01 
  8.5000e-10  4.739e-01 
  8.6000e-10  4.743e-01 
  8.7000e-10  4.743e-01 
  8.8000e-10  4.743e-01 
  8.9000e-10  4.743e-01 
  9.0000e-10  4.743e-01 
  9.1000e-10  4.743e-01 
  9.2000e-10  4.743e-01 
  9.3000e-10  4.743e-01 
  9.4000e-10  4.743e-01 
  9.5000e-10  4.743e-01 
  9.6000e-10  4.743e-01 
  9.7000e-10  4.743e-01 
  9.8000e-10  4.743e-01 
  9.9000e-10  4.743e-01 
  1.0000e-09  4.743e-01 
  1.0100e-09  4.743e-01 
  1.0200e-09  4.743e-01 
  1.0300e-09  4.743e-01 
  1.0400e-09  4.748e-01 
  1.0500e-09  4.486e-01 
  1.0600e-09  3.891e-01 
  1.0700e-09  4.756e-01 
  1.0800e-09  8.401e-01 
  1.0900e-09  8.901e-01 
  1.1000e-09  8.962e-01 
  1.1100e-09  8.979e-01 
  1.1200e-09  8.986e-01 
  1.1300e-09  8.989e-01 
  1.1400e-09  8.992e-01 
  1.1500e-09  8.993e-01 
  1.1600e-09  8.994e-01 
  1.1700e-09  8.995e-01 
  1.1800e-09  8.995e-01 
  1.1900e-09  8.996e-01 
  1.2000e-09  8.996e-01 
  1.2100e-09  8.996e-01 
  1.2200e-09  8.997e-01 
  1.2300e-09  8.997e-01 
  1.2400e-09  8.997e-01 
  1.2500e-09  8.997e-01 
  1.2600e-09  8.997e-01 
  1.2700e-09  8.998e-01 
  1.2800e-09  8.998e-01 
  1.2900e-09  8.998e-01 
  1.3000e-09  8.998e-01 
  1.3100e-09  8.998e-01 
  1.3200e-09  8.998e-01 
  1.3300e-09  8.998e-01 
  1.3400e-09  8.998e-01 
  1.3500e-09  8.998e-01 
  1.3600e-09  8.998e-01 
  1.3700e-09  8.998e-01 
  1.3800e-09  8.998e-01 
  1.3900e-09  8.998e-01 
  1.4000e-09  8.998e-01 
  1.4100e-09  8.998e-01 
  1.4200e-09  8.999e-01 
  1.4300e-09  8.999e-01 
  1.4400e-09  8.999e-01 
  1.4500e-09  8.999e-01 
  1.4600e-09  8.999e-01 
  1.4700e-09  8.999e-01 
  1.4800e-09  8.999e-01 
  1.4900e-09  8.999e-01 
  1.5000e-09  8.999e-01 
  1.5100e-09  8.999e-01 
  1.5200e-09  8.999e-01 
  1.5300e-09  8.999e-01 
  1.5400e-09  8.999e-01 
  1.5500e-09  8.999e-01 
  1.5600e-09  8.999e-01 
  1.5700e-09  8.999e-01 
  1.5800e-09  8.999e-01 
  1.5900e-09  8.999e-01 
  1.6000e-09  9.998e-01 
  1.6100e-09  2.883e-01 
  1.6200e-09  8.932e-01 
  1.6300e-09  8.993e-01 
  1.6400e-09  8.997e-01 
  1.6500e-09  8.998e-01 
  1.6600e-09  8.998e-01 
  1.6700e-09  8.998e-01 
  1.6800e-09  8.999e-01 
  1.6900e-09  8.999e-01 
  1.7000e-09  8.999e-01 
  1.7100e-09  8.999e-01 
  1.7200e-09  8.999e-01 
  1.7300e-09  8.999e-01 
  1.7400e-09  8.999e-01 
  1.7500e-09  8.999e-01 
  1.7600e-09  8.999e-01 
  1.7700e-09  8.999e-01 
  1.7800e-09  8.999e-01 
  1.7900e-09  8.999e-01 
  1.8000e-09  8.999e-01 
  1.8100e-09  8.999e-01 
  1.8200e-09  8.999e-01 
  1.8300e-09  8.999e-01 
  1.8400e-09  9.000e-01 
  1.8500e-09  9.000e-01 
  1.8600e-09  9.000e-01 
  1.8700e-09  9.000e-01 
  1.8800e-09  9.000e-01 
  1.8900e-09  9.000e-01 
  1.9000e-09  9.000e-01 
  1.9100e-09  9.000e-01 
  1.9200e-09  9.000e-01 
  1.9300e-09  9.000e-01 
  1.9400e-09  9.000e-01 
  1.9500e-09  9.000e-01 
  1.9600e-09  9.000e-01 
  1.9700e-09  9.000e-01 
  1.9800e-09  9.000e-01 
  1.9900e-09  9.000e-01 
  2.0000e-09  9.000e-01 
  2.0100e-09  9.000e-01 
  2.0200e-09  9.000e-01 
  2.0300e-09  9.001e-01 
  2.0400e-09  9.000e-01 
  2.0500e-09  9.002e-01 
  2.0600e-09  8.998e-01 
  2.0700e-09  9.000e-01 
  2.0800e-09  9.000e-01 
  2.0900e-09  9.000e-01 
  2.1000e-09  9.000e-01 
  2.1100e-09  9.000e-01 
  2.1200e-09  9.000e-01 
  2.1300e-09  9.000e-01 
  2.1400e-09  9.000e-01 
  2.1500e-09  9.000e-01 
  2.1600e-09  9.000e-01 
  2.1700e-09  9.000e-01 
  2.1800e-09  9.000e-01 
  2.1900e-09  9.000e-01 
  2.2000e-09  9.000e-01 
  2.2100e-09  9.000e-01 
  2.2200e-09  9.000e-01 
  2.2300e-09  9.000e-01 
  2.2400e-09  9.000e-01 
  2.2500e-09  9.000e-01 
  2.2600e-09  9.000e-01 
  2.2700e-09  9.000e-01 
  2.2800e-09  8.999e-01 
  2.2900e-09  9.001e-01 
  2.3000e-09  9.000e-01 
  2.3100e-09  9.000e-01 
  2.3200e-09  9.000e-01 
  2.3300e-09  9.000e-01 
  2.3400e-09  9.000e-01 
  2.3500e-09  9.000e-01 
  2.3600e-09  9.000e-01 
  2.3700e-09  9.000e-01 
  2.3800e-09  9.000e-01 
  2.3900e-09  9.000e-01 
  2.4000e-09  9.000e-01 
  2.4100e-09  9.000e-01 
  2.4200e-09  9.013e-01 
  2.4300e-09  9.028e-01 
  2.4400e-09  8.964e-01 
  2.4500e-09  8.993e-01 
  2.4600e-09  8.997e-01 
  2.4700e-09  8.998e-01 
  2.4800e-09  8.998e-01 
  2.4900e-09  8.999e-01 
  2.5000e-09  8.999e-01 
  2.5100e-09  8.999e-01 
  2.5200e-09  8.999e-01 
  2.5300e-09  8.999e-01 
  2.5400e-09  8.999e-01 
  2.5500e-09  8.999e-01 
  2.5600e-09  8.999e-01 
  2.5700e-09  8.999e-01 
  2.5800e-09  8.999e-01 
  2.5900e-09  9.000e-01 
  2.6000e-09  9.000e-01 
  2.6100e-09  9.000e-01 
  2.6200e-09  9.000e-01 
  2.6300e-09  8.999e-01 
  2.6400e-09  9.014e-01 
  2.6500e-09  8.833e-01 
  2.6600e-09  2.376e-01 
  2.6700e-09  7.795e-03 
  2.6800e-09 -1.662e-02 
  2.6900e-09  7.503e-01 
  2.7000e-09  8.998e-01 
  2.7100e-09  8.997e-01 
  2.7200e-09  8.998e-01 
  2.7300e-09  8.998e-01 
  2.7400e-09  8.999e-01 
  2.7500e-09  8.999e-01 
  2.7600e-09  8.999e-01 
  2.7700e-09  8.999e-01 
  2.7800e-09  8.999e-01 
  2.7900e-09  8.999e-01 
  2.8000e-09  8.999e-01 
  2.8100e-09  8.999e-01 
  2.8200e-09  8.999e-01 
  2.8300e-09  8.999e-01 
  2.8400e-09  9.000e-01 
  2.8500e-09  9.054e-01 
  2.8600e-09  4.466e-01 
  2.8700e-09  2.260e-02 
  2.8800e-09  1.840e-03 
  2.8900e-09  1.655e-03 
  2.9000e-09  7.826e-04 
  2.9100e-09  5.546e-04 
  2.9200e-09  4.640e-04 
  2.9300e-09  4.045e-04 
  2.9400e-09  3.553e-04 
  2.9500e-09  3.197e-04 
  2.9600e-09  2.908e-04 
  2.9700e-09  2.684e-04 
  2.9800e-09  2.496e-04 
  2.9900e-09  2.352e-04 
  3.0000e-09  2.222e-04 
  3.0100e-09  2.116e-04 
  3.0200e-09  2.022e-04 
  3.0300e-09  1.944e-04 
  3.0400e-09  1.871e-04 
  3.0500e-09  1.807e-04 
  3.0600e-09  1.750e-04 
  3.0700e-09  1.698e-04 
  3.0800e-09  1.651e-04 
  3.0900e-09  1.609e-04 
  3.1000e-09  1.570e-04 
  3.1100e-09  1.534e-04 
  3.1200e-09  1.502e-04 
  3.1300e-09  1.472e-04 
  3.1400e-09  1.444e-04 
  3.1500e-09  1.418e-04 
  3.1600e-09  1.394e-04 
  3.1700e-09  1.372e-04 
  3.1800e-09  1.351e-04 
  3.1900e-09  1.330e-04 
  3.2000e-09  1.311e-04 
y
x

 time         voltage   
             out_t1     
  0.0000e+00  4.827e-01 
  1.0000e-11  4.827e-01 
  2.0000e-11  4.827e-01 
  3.0000e-11  4.827e-01 
  4.0000e-11  4.827e-01 
  5.0000e-11  4.827e-01 
  6.0000e-11  4.827e-01 
  7.0000e-11  4.827e-01 
  8.0000e-11  4.827e-01 
  9.0000e-11  4.827e-01 
  1.0000e-10  4.827e-01 
  1.1000e-10  4.827e-01 
  1.2000e-10  4.827e-01 
  1.3000e-10  4.827e-01 
  1.4000e-10  4.827e-01 
  1.5000e-10  4.827e-01 
  1.6000e-10  4.827e-01 
  1.7000e-10  4.827e-01 
  1.8000e-10  4.827e-01 
  1.9000e-10  4.827e-01 
  2.0000e-10  4.827e-01 
  2.1000e-10  4.827e-01 
  2.2000e-10  4.827e-01 
  2.3000e-10  4.827e-01 
  2.4000e-10  4.827e-01 
  2.5000e-10  4.827e-01 
  2.6000e-10  4.827e-01 
  2.7000e-10  4.827e-01 
  2.8000e-10  4.827e-01 
  2.9000e-10  4.827e-01 
  3.0000e-10  4.827e-01 
  3.1000e-10  4.827e-01 
  3.2000e-10  4.827e-01 
  3.3000e-10  4.827e-01 
  3.4000e-10  4.827e-01 
  3.5000e-10  4.827e-01 
  3.6000e-10  4.827e-01 
  3.7000e-10  4.827e-01 
  3.8000e-10  4.827e-01 
  3.9000e-10  4.827e-01 
  4.0000e-10  4.827e-01 
  4.1000e-10  4.833e-01 
  4.2000e-10  4.810e-01 
  4.3000e-10  4.849e-01 
  4.4000e-10  4.716e-01 
  4.5000e-10  8.303e-01 
  4.6000e-10  8.981e-01 
  4.7000e-10  8.993e-01 
  4.8000e-10  8.995e-01 
  4.9000e-10  8.997e-01 
  5.0000e-10  8.997e-01 
  5.1000e-10  8.998e-01 
  5.2000e-10  8.998e-01 
  5.3000e-10  8.998e-01 
  5.4000e-10  8.998e-01 
  5.5000e-10  8.998e-01 
  5.6000e-10  8.999e-01 
  5.7000e-10  8.999e-01 
  5.8000e-10  8.999e-01 
  5.9000e-10  8.999e-01 
  6.0000e-10  8.999e-01 
  6.1000e-10  8.999e-01 
  6.2000e-10  8.999e-01 
  6.3000e-10  8.999e-01 
  6.4000e-10  8.999e-01 
  6.5000e-10  8.999e-01 
  6.6000e-10  8.999e-01 
  6.7000e-10  8.999e-01 
  6.8000e-10  8.999e-01 
  6.9000e-10  8.999e-01 
  7.0000e-10  8.999e-01 
  7.1000e-10  8.999e-01 
  7.2000e-10  8.999e-01 
  7.3000e-10  8.999e-01 
  7.4000e-10  8.999e-01 
  7.5000e-10  8.999e-01 
  7.6000e-10  8.999e-01 
  7.7000e-10  8.999e-01 
  7.8000e-10  8.999e-01 
  7.9000e-10  8.999e-01 
  8.0000e-10  9.004e-01 
  8.1000e-10  8.953e-01 
  8.2000e-10  9.058e-01 
  8.3000e-10  8.998e-01 
  8.4000e-10  9.000e-01 
  8.5000e-10  8.999e-01 
  8.6000e-10  8.999e-01 
  8.7000e-10  8.999e-01 
  8.8000e-10  8.999e-01 
  8.9000e-10  8.999e-01 
  9.0000e-10  8.999e-01 
  9.1000e-10  8.999e-01 
  9.2000e-10  8.999e-01 
  9.3000e-10  8.999e-01 
  9.4000e-10  8.999e-01 
  9.5000e-10  8.999e-01 
  9.6000e-10  8.999e-01 
  9.7000e-10  8.999e-01 
  9.8000e-10  8.999e-01 
  9.9000e-10  8.999e-01 
  1.0000e-09  8.999e-01 
  1.0100e-09  8.999e-01 
  1.0200e-09  8.999e-01 
  1.0300e-09  8.998e-01 
  1.0400e-09  8.924e-01 
  1.0500e-09  8.206e-01 
  1.0600e-09  4.566e-01 
  1.0700e-09  1.182e-02 
  1.0800e-09  1.333e-03 
  1.0900e-09  7.273e-04 
  1.1000e-09  5.107e-04 
  1.1100e-09  3.942e-04 
  1.1200e-09  3.251e-04 
  1.1300e-09  2.759e-04 
  1.1400e-09  2.410e-04 
  1.1500e-09  2.157e-04 
  1.1600e-09  1.962e-04 
  1.1700e-09  1.795e-04 
  1.1800e-09  1.653e-04 
  1.1900e-09  1.542e-04 
  1.2000e-09  1.458e-04 
  1.2100e-09  1.351e-04 
  1.2200e-09 -1.521e-04 
  1.2300e-09  2.376e-04 
  1.2400e-09  1.328e-04 
  1.2500e-09  1.130e-04 
  1.2600e-09  1.072e-04 
  1.2700e-09  1.030e-04 
  1.2800e-09  9.924e-05 
  1.2900e-09  9.586e-05 
  1.3000e-09  9.275e-05 
  1.3100e-09  8.993e-05 
  1.3200e-09  8.732e-05 
  1.3300e-09  8.489e-05 
  1.3400e-09  8.264e-05 
  1.3500e-09  8.069e-05 
  1.3600e-09  7.874e-05 
  1.3700e-09  7.691e-05 
  1.3800e-09  7.528e-05 
  1.3900e-09  7.366e-05 
  1.4000e-09  7.230e-05 
  1.4100e-09  7.077e-05 
  1.4200e-09  6.946e-05 
  1.4300e-09  6.789e-05 
  1.4400e-09  6.708e-05 
  1.4500e-09  6.603e-05 
  1.4600e-09  6.497e-05 
  1.4700e-09  6.387e-05 
  1.4800e-09  6.303e-05 
  1.4900e-09  6.210e-05 
  1.5000e-09  6.124e-05 
  1.5100e-09  6.043e-05 
  1.5200e-09  5.965e-05 
  1.5300e-09  5.891e-05 
  1.5400e-09  5.820e-05 
  1.5500e-09  5.753e-05 
  1.5600e-09  5.687e-05 
  1.5700e-09  5.625e-05 
  1.5800e-09  5.565e-05 
  1.5900e-09  5.507e-05 
  1.6000e-09  9.152e-05 
  1.6100e-09  4.232e-01 
  1.6200e-09  4.759e-01 
  1.6300e-09  7.077e-01 
  1.6400e-09  8.879e-01 
  1.6500e-09  8.968e-01 
  1.6600e-09  9.144e-01 
  1.6700e-09  5.194e-01 
  1.6800e-09  4.838e-01 
  1.6900e-09  4.838e-01 
  1.7000e-09  4.837e-01 
  1.7100e-09  4.837e-01 
  1.7200e-09  4.837e-01 
  1.7300e-09  4.837e-01 
  1.7400e-09  4.837e-01 
  1.7500e-09  4.837e-01 
  1.7600e-09  4.837e-01 
  1.7700e-09  4.837e-01 
  1.7800e-09  4.837e-01 
  1.7900e-09  4.837e-01 
  1.8000e-09  4.837e-01 
  1.8100e-09  4.837e-01 
  1.8200e-09  4.837e-01 
  1.8300e-09  4.837e-01 
  1.8400e-09  4.837e-01 
  1.8500e-09  4.837e-01 
  1.8600e-09  4.837e-01 
  1.8700e-09  4.837e-01 
  1.8800e-09  4.836e-01 
  1.8900e-09  4.836e-01 
  1.9000e-09  4.836e-01 
  1.9100e-09  4.836e-01 
  1.9200e-09  4.836e-01 
  1.9300e-09  4.836e-01 
  1.9400e-09  4.836e-01 
  1.9500e-09  4.836e-01 
  1.9600e-09  4.836e-01 
  1.9700e-09  4.835e-01 
  1.9800e-09  4.835e-01 
  1.9900e-09  4.835e-01 
  2.0000e-09  4.835e-01 
  2.0100e-09  4.841e-01 
  2.0200e-09  4.818e-01 
  2.0300e-09  4.851e-01 
  2.0400e-09  4.716e-01 
  2.0500e-09  8.414e-01 
  2.0600e-09  7.019e-01 
  2.0700e-09  4.952e-01 
  2.0800e-09  4.827e-01 
  2.0900e-09  4.820e-01 
  2.1000e-09  4.820e-01 
  2.1100e-09  4.821e-01 
  2.1200e-09  4.821e-01 
  2.1300e-09  4.821e-01 
  2.1400e-09  4.821e-01 
  2.1500e-09  4.821e-01 
  2.1600e-09  4.821e-01 
  2.1700e-09  4.821e-01 
  2.1800e-09  4.821e-01 
  2.1900e-09  4.821e-01 
  2.2000e-09  4.821e-01 
  2.2100e-09  4.821e-01 
  2.2200e-09  4.821e-01 
  2.2300e-09  4.821e-01 
  2.2400e-09  4.821e-01 
  2.2500e-09  4.821e-01 
  2.2600e-09  4.822e-01 
  2.2700e-09  4.817e-01 
  2.2800e-09  5.155e-01 
  2.2900e-09  8.922e-01 
  2.3000e-09  8.990e-01 
  2.3100e-09  8.995e-01 
  2.3200e-09  8.996e-01 
  2.3300e-09  8.997e-01 
  2.3400e-09  8.998e-01 
  2.3500e-09  8.998e-01 
  2.3600e-09  8.998e-01 
  2.3700e-09  8.998e-01 
  2.3800e-09  8.998e-01 
  2.3900e-09  8.999e-01 
  2.4000e-09  9.003e-01 
  2.4100e-09  8.953e-01 
  2.4200e-09  9.057e-01 
  2.4300e-09  8.997e-01 
  2.4400e-09  8.999e-01 
  2.4500e-09  8.999e-01 
  2.4600e-09  8.999e-01 
  2.4700e-09  8.999e-01 
  2.4800e-09  8.999e-01 
  2.4900e-09  8.999e-01 
  2.5000e-09  8.999e-01 
  2.5100e-09  8.999e-01 
  2.5200e-09  8.999e-01 
  2.5300e-09  8.999e-01 
  2.5400e-09  8.999e-01 
  2.5500e-09  8.999e-01 
  2.5600e-09  8.999e-01 
  2.5700e-09  8.999e-01 
  2.5800e-09  8.999e-01 
  2.5900e-09  8.999e-01 
  2.6000e-09  8.999e-01 
  2.6100e-09  8.999e-01 
  2.6200e-09  8.999e-01 
  2.6300e-09  8.997e-01 
  2.6400e-09  8.925e-01 
  2.6500e-09  8.158e-01 
  2.6600e-09  4.460e-01 
  2.6700e-09  5.910e-01 
  2.6800e-09  8.702e-01 
  2.6900e-09  8.925e-01 
  2.7000e-09  8.966e-01 
  2.7100e-09  8.979e-01 
  2.7200e-09  8.985e-01 
  2.7300e-09  8.988e-01 
  2.7400e-09  8.990e-01 
  2.7500e-09  8.992e-01 
  2.7600e-09  8.993e-01 
  2.7700e-09  8.994e-01 
  2.7800e-09  8.995e-01 
  2.7900e-09  8.995e-01 
  2.8000e-09  8.996e-01 
  2.8100e-09  8.996e-01 
  2.8200e-09  8.960e-01 
  2.8300e-09  9.027e-01 
  2.8400e-09  6.103e-01 
  2.8500e-09  3.538e-01 
  2.8600e-09  1.693e-02 
  2.8700e-09  1.325e-03 
  2.8800e-09  6.528e-04 
  2.8900e-09  4.556e-04 
  2.9000e-09  3.591e-04 
  2.9100e-09  2.988e-04 
  2.9200e-09  2.578e-04 
  2.9300e-09  2.277e-04 
  2.9400e-09  2.043e-04 
  2.9500e-09  1.863e-04 
  2.9600e-09  1.710e-04 
  2.9700e-09  1.585e-04 
  2.9800e-09  1.476e-04 
  2.9900e-09  1.390e-04 
  3.0000e-09  1.311e-04 
  3.0100e-09  1.244e-04 
  3.0200e-09  1.187e-04 
  3.0300e-09  1.128e-04 
  3.0400e-09  1.089e-04 
  3.0500e-09  1.050e-04 
  3.0600e-09  1.017e-04 
  3.0700e-09  9.796e-05 
  3.0800e-09  9.508e-05 
  3.0900e-09  9.189e-05 
  3.1000e-09  8.922e-05 
  3.1100e-09  8.682e-05 
  3.1200e-09  8.463e-05 
  3.1300e-09  8.263e-05 
  3.1400e-09  8.075e-05 
  3.1500e-09  7.899e-05 
  3.1600e-09  7.735e-05 
  3.1700e-09  7.584e-05 
  3.1800e-09  7.435e-05 
  3.1900e-09  7.294e-05 
  3.2000e-09  7.161e-05 
y
x

 time         voltage   
             out_t0     
  0.0000e+00  4.721e-01 
  1.0000e-11  4.721e-01 
  2.0000e-11  4.721e-01 
  3.0000e-11  4.721e-01 
  4.0000e-11  4.721e-01 
  5.0000e-11  4.721e-01 
  6.0000e-11  4.721e-01 
  7.0000e-11  4.721e-01 
  8.0000e-11  4.721e-01 
  9.0000e-11  4.721e-01 
  1.0000e-10  4.721e-01 
  1.1000e-10  4.721e-01 
  1.2000e-10  4.721e-01 
  1.3000e-10  4.721e-01 
  1.4000e-10  4.721e-01 
  1.5000e-10  4.721e-01 
  1.6000e-10  4.721e-01 
  1.7000e-10  4.721e-01 
  1.8000e-10  4.721e-01 
  1.9000e-10  4.721e-01 
  2.0000e-10  4.722e-01 
  2.1000e-10  4.724e-01 
  2.2000e-10  4.714e-01 
  2.3000e-10  4.890e-01 
  2.4000e-10  4.780e-01 
  2.5000e-10  4.682e-01 
  2.6000e-10  5.922e-01 
  2.7000e-10  8.645e-01 
  2.8000e-10  8.902e-01 
  2.9000e-10  8.952e-01 
  3.0000e-10  8.971e-01 
  3.1000e-10  8.980e-01 
  3.2000e-10  8.985e-01 
  3.3000e-10  8.988e-01 
  3.4000e-10  8.990e-01 
  3.5000e-10  8.992e-01 
  3.6000e-10  8.993e-01 
  3.7000e-10  8.994e-01 
  3.8000e-10  8.994e-01 
  3.9000e-10  8.995e-01 
  4.0000e-10  8.995e-01 
  4.1000e-10  8.994e-01 
  4.2000e-10  8.964e-01 
  4.3000e-10  9.039e-01 
  4.4000e-10  8.464e-01 
  4.5000e-10  9.559e-03 
  4.6000e-10  1.223e-03 
  4.7000e-10  6.502e-04 
  4.8000e-10  4.620e-04 
  4.9000e-10  3.642e-04 
  5.0000e-10  3.011e-04 
  5.1000e-10  2.588e-04 
  5.2000e-10  2.244e-04 
  5.3000e-10  2.002e-04 
  5.4000e-10  1.811e-04 
  5.5000e-10  1.651e-04 
  5.6000e-10  1.522e-04 
  5.7000e-10  1.418e-04 
  5.8000e-10  1.326e-04 
  5.9000e-10  1.245e-04 
  6.0000e-10  1.184e-04 
  6.1000e-10  1.085e-04 
  6.2000e-10  9.645e-05 
  6.3000e-10  4.810e-03 
  6.4000e-10  5.205e-02 
  6.5000e-10  7.718e-03 
  6.6000e-10  7.063e-03 
  6.7000e-10  4.491e-01 
  6.8000e-10  4.676e-01 
  6.9000e-10  4.690e-01 
  7.0000e-10  4.697e-01 
  7.1000e-10  4.701e-01 
  7.2000e-10  4.705e-01 
  7.3000e-10  4.707e-01 
  7.4000e-10  4.709e-01 
  7.5000e-10  4.710e-01 
  7.6000e-10  4.711e-01 
  7.7000e-10  4.712e-01 
  7.8000e-10  4.713e-01 
  7.9000e-10  4.713e-01 
  8.0000e-10  4.717e-01 
  8.1000e-10  4.700e-01 
  8.2000e-10  4.769e-01 
  8.3000e-10  4.524e-01 
  8.4000e-10  4.648e-01 
  8.5000e-10  4.791e-01 
  8.6000e-10  8.278e-01 
  8.7000e-10  8.859e-01 
  8.8000e-10  8.940e-01 
  8.9000e-10  8.967e-01 
  9.0000e-10  8.978e-01 
  9.1000e-10  8.984e-01 
  9.2000e-10  8.987e-01 
  9.3000e-10  8.990e-01 
  9.4000e-10  8.991e-01 
  9.5000e-10  8.993e-01 
  9.6000e-10  8.993e-01 
  9.7000e-10  8.994e-01 
  9.8000e-10  8.995e-01 
  9.9000e-10  8.995e-01 
  1.0000e-09  8.996e-01 
  1.0100e-09  8.996e-01 
  1.0200e-09  8.967e-01 
  1.0300e-09  8.923e-01 
  1.0400e-09  9.073e-01 
  1.0500e-09  8.633e-01 
  1.0600e-09  5.698e-02 
  1.0700e-09  2.212e-03 
  1.0800e-09  8.755e-04 
  1.0900e-09  5.839e-04 
  1.1000e-09  4.419e-04 
  1.1100e-09  3.547e-04 
  1.1200e-09  2.984e-04 
  1.1300e-09  2.564e-04 
  1.1400e-09  2.254e-04 
  1.1500e-09  2.022e-04 
  1.1600e-09  1.840e-04 
  1.1700e-09  1.682e-04 
  1.1800e-09  1.547e-04 
  1.1900e-09  1.441e-04 
  1.2000e-09  1.744e-04 
  1.2100e-09  2.054e-04 
  1.2200e-09  4.604e-02 
  1.2300e-09  3.859e-01 
  1.2400e-09  4.613e-01 
  1.2500e-09  4.690e-01 
  1.2600e-09  4.711e-01 
  1.2700e-09  4.718e-01 
  1.2800e-09  4.720e-01 
  1.2900e-09  4.721e-01 
  1.3000e-09  4.721e-01 
  1.3100e-09  4.721e-01 
  1.3200e-09  4.721e-01 
  1.3300e-09  4.721e-01 
  1.3400e-09  4.721e-01 
  1.3500e-09  4.721e-01 
  1.3600e-09  4.721e-01 
  1.3700e-09  4.721e-01 
  1.3800e-09  4.721e-01 
  1.3900e-09  4.721e-01 
  1.4000e-09  4.721e-01 
  1.4100e-09  4.720e-01 
  1.4200e-09  4.713e-01 
  1.4300e-09  4.894e-01 
  1.4400e-09  4.609e-01 
  1.4500e-09  4.659e-01 
  1.4600e-09  4.911e-01 
  1.4700e-09  8.387e-01 
  1.4800e-09  8.871e-01 
  1.4900e-09  8.944e-01 
  1.5000e-09  8.968e-01 
  1.5100e-09  8.978e-01 
  1.5200e-09  8.984e-01 
  1.5300e-09  8.988e-01 
  1.5400e-09  8.990e-01 
  1.5500e-09  8.991e-01 
  1.5600e-09  8.993e-01 
  1.5700e-09  8.993e-01 
  1.5800e-09  8.994e-01 
  1.5900e-09  8.995e-01 
  1.6000e-09  9.442e-01 
  1.6100e-09  5.951e-01 
  1.6200e-09  4.759e-01 
  1.6300e-09  4.790e-01 
  1.6400e-09  4.997e-01 
  1.6500e-09  3.971e-01 
  1.6600e-09  1.011e-01 
  1.6700e-09  2.412e-02 
  1.6800e-09  8.618e-03 
  1.6900e-09  4.265e-03 
  1.7000e-09  2.744e-03 
  1.7100e-09  1.972e-03 
  1.7200e-09  1.492e-03 
  1.7300e-09  1.217e-03 
  1.7400e-09  1.011e-03 
  1.7500e-09  8.731e-04 
  1.7600e-09  7.636e-04 
  1.7700e-09  6.807e-04 
  1.7800e-09  6.174e-04 
  1.7900e-09  5.625e-04 
  1.8000e-09  5.246e-04 
  1.8100e-09  5.684e-04 
  1.8200e-09 -2.910e-04 
  1.8300e-09  2.569e-02 
  1.8400e-09  1.792e-02 
  1.8500e-09 -8.014e-04 
  1.8600e-09 -2.086e-02 
  1.8700e-09  3.820e-01 
  1.8800e-09  4.657e-01 
  1.8900e-09  4.785e-01 
  1.9000e-09  4.811e-01 
  1.9100e-09  4.818e-01 
  1.9200e-09  4.819e-01 
  1.9300e-09  4.819e-01 
  1.9400e-09  4.819e-01 
  1.9500e-09  4.819e-01 
  1.9600e-09  4.819e-01 
  1.9700e-09  4.819e-01 
  1.9800e-09  4.819e-01 
  1.9900e-09  4.819e-01 
  2.0000e-09  4.820e-01 
  2.0100e-09  4.782e-01 
  2.0200e-09  4.557e-01 
  2.0300e-09  4.473e-01 
  2.0400e-09  8.803e-01 
  2.0500e-09  8.942e-01 
  2.0600e-09  8.978e-01 
  2.0700e-09  8.987e-01 
  2.0800e-09  8.990e-01 
  2.0900e-09  8.992e-01 
  2.1000e-09  8.993e-01 
  2.1100e-09  8.993e-01 
  2.1200e-09  8.994e-01 
  2.1300e-09  8.994e-01 
  2.1400e-09  8.995e-01 
  2.1500e-09  8.995e-01 
  2.1600e-09  8.995e-01 
  2.1700e-09  8.995e-01 
  2.1800e-09  8.995e-01 
  2.1900e-09  8.995e-01 
  2.2000e-09  8.995e-01 
  2.2100e-09  8.995e-01 
  2.2200e-09  8.991e-01 
  2.2300e-09  9.136e-01 
  2.2400e-09  8.835e-01 
  2.2500e-09  4.737e-01 
  2.2600e-09  2.182e-01 
  2.2700e-09  3.042e-02 
  2.2800e-09  1.062e-02 
  2.2900e-09  5.230e-03 
  2.3000e-09  3.139e-03 
  2.3100e-09  2.144e-03 
  2.3200e-09  1.605e-03 
  2.3300e-09  1.294e-03 
  2.3400e-09  1.077e-03 
  2.3500e-09  9.289e-04 
  2.3600e-09  8.034e-04 
  2.3700e-09  7.189e-04 
  2.3800e-09  6.479e-04 
  2.3900e-09  5.881e-04 
  2.4000e-09  1.326e-03 
  2.4100e-09 -1.511e-03 
  2.4200e-09  2.148e-02 
  2.4300e-09  1.855e-02 
  2.4400e-09  1.747e-03 
  2.4500e-09 -1.707e-02 
  2.4600e-09  3.423e-01 
  2.4700e-09  4.589e-01 
  2.4800e-09  4.775e-01 
  2.4900e-09  4.809e-01 
  2.5000e-09  4.818e-01 
  2.5100e-09  4.819e-01 
  2.5200e-09  4.819e-01 
  2.5300e-09  4.819e-01 
  2.5400e-09  4.819e-01 
  2.5500e-09  4.819e-01 
  2.5600e-09  4.819e-01 
  2.5700e-09  4.819e-01 
  2.5800e-09  4.819e-01 
  2.5900e-09  4.819e-01 
  2.6000e-09  4.819e-01 
  2.6100e-09  4.823e-01 
  2.6200e-09  4.573e-01 
  2.6300e-09  4.610e-01 
  2.6400e-09  4.949e-01 
  2.6500e-09  6.812e-01 
  2.6600e-09  8.933e-01 
  2.6700e-09  8.961e-01 
  2.6800e-09  8.979e-01 
  2.6900e-09  8.987e-01 
  2.7000e-09  8.990e-01 
  2.7100e-09  8.992e-01 
  2.7200e-09  8.993e-01 
  2.7300e-09  8.993e-01 
  2.7400e-09  8.994e-01 
  2.7500e-09  8.994e-01 
  2.7600e-09  8.995e-01 
  2.7700e-09  8.995e-01 
  2.7800e-09  8.995e-01 
  2.7900e-09  8.995e-01 
  2.8000e-09  8.999e-01 
  2.8100e-09  8.987e-01 
  2.8200e-09  5.978e-01 
  2.8300e-09  4.627e-02 
  2.8400e-09  4.651e-03 
  2.8500e-09  1.830e-03 
  2.8600e-09  1.744e-03 
  2.8700e-09  1.627e-03 
  2.8800e-09  1.434e-03 
  2.8900e-09  1.240e-03 
  2.9000e-09  1.073e-03 
  2.9100e-09  9.372e-04 
  2.9200e-09  8.290e-04 
  2.9300e-09  7.411e-04 
  2.9400e-09  6.692e-04 
  2.9500e-09  6.112e-04 
  2.9600e-09  5.605e-04 
  2.9700e-09  5.182e-04 
  2.9800e-09  4.805e-04 
  2.9900e-09  4.500e-04 
  3.0000e-09  4.203e-04 
  3.0100e-09  4.039e-04 
  3.0200e-09 -7.386e-04 
  3.0300e-09  2.563e-02 
  3.0400e-09  1.847e-02 
  3.0500e-09  8.491e-04 
  3.0600e-09 -1.812e-02 
  3.0700e-09  3.531e-01 
  3.0800e-09  4.606e-01 
  3.0900e-09  4.778e-01 
  3.1000e-09  4.810e-01 
  3.1100e-09  4.816e-01 
  3.1200e-09  4.818e-01 
  3.1300e-09  4.819e-01 
  3.1400e-09  4.819e-01 
  3.1500e-09  4.819e-01 
  3.1600e-09  4.819e-01 
  3.1700e-09  4.819e-01 
  3.1800e-09  4.819e-01 
  3.1900e-09  4.819e-01 
  3.2000e-09  4.819e-01 
y
 iavgsum= 1.0911e-05  from= 0.0000e+00     to= 3.2000e-09

          ***** job concluded
 ******  
 ternary circuits

 ****** job statistics summary tnom=  25.000 temp=  25.000 ******

  ******  HSPICE Threads Information  ******

  Command Line Threads Count :     2
  Available CPU Count        :    12
  Actual Threads Count       :     2


  ******  Circuit Statistics  ******
  # nodes       =    6120 # elements   =   13900
  # resistors   =    2568 # capacitors =    6206 # inductors   =       0
  # mutual_inds =       0 # vccs       =    1712 # vcvs        =    2980
  # cccs        =       0 # ccvs       =       0 # volt_srcs   =     434
  # curr_srcs   =       0 # diodes     =       0 # bjts        =       0
  # jfets       =       0 # mosfets    =       0 # U elements  =       0
  # T elements  =       0 # W elements =       0 # B elements  =       0
  # S elements  =       0 # P elements =       0 # va device   =       0
  # vector_srcs =       0 # N elements =       0


  ******  Runtime Statistics (seconds)  ******

  analysis           time    # points   tot. iter  conv.iter
  op point         608.86           1        2607
  transient       2810.61         321       12984        4340 rev=       102
  readin             0.10
  errchk             5.19
  setup              0.05
  output             0.00


           peak memory used        263.48 megabytes
           total cpu time         3424.92 seconds
           total elapsed time     3425.36 seconds
           job started at     12:48:23 12/19/2021
           job ended   at     13:45:28 12/19/2021
           job total runtime      3425.36 seconds


  lic: Release hspice token(s) 
 lic: total license checkout elapse time:        0.43(s)
